# generated using pymatgen
data_Y
_symmetry_space_group_name_H-M   'P 1'
_cell_length_a   8.93480000
_cell_length_b   9.66080000
_cell_length_c   17.01700000
_cell_angle_alpha   90.00000000
_cell_angle_beta   102.77400000
_cell_angle_gamma   90.00000000
_symmetry_Int_Tables_number   1
_chemical_formula_structural   Y
_chemical_formula_sum   Y4
_cell_volume   1432.50712568
_cell_formula_units_Z   4
loop_
 _symmetry_equiv_pos_site_id
 _symmetry_equiv_pos_as_xyz
  1  'x, y, z'
loop_
 _atom_site_type_symbol
 _atom_site_label
 _atom_site_symmetry_multiplicity
 _atom_site_fract_x
 _atom_site_fract_y
 _atom_site_fract_z
 _atom_site_occupancy
  Y  Y0  1  0.35961000  0.79057000  0.28713000  1
  Y  Y1  1  0.14039000  0.29057000  0.71287000  1
  Y  Y2  1  0.64039000  0.20943000  0.71287000  1
  Y  Y3  1  0.85961000  0.70943000  0.28713000  1
