data_image0
_chemical_formula_structural       Cd2H56C80N16H7C7SO3H7C7SO3H7C7SO3H7C7SO3
_chemical_formula_sum              "Cd2 H84 C108 N16 S4 O12"
_cell_length_a       9.2922
_cell_length_b       22.5731
_cell_length_c       15.9182
_cell_angle_alpha    90
_cell_angle_beta     122.366
_cell_angle_gamma    90

_space_group_name_H-M_alt    "P 1"
_space_group_IT_number       1

loop_
  _space_group_symop_operation_xyz
  'x, y, z'

loop_
  _atom_site_type_symbol
  _atom_site_label
  _atom_site_symmetry_multiplicity
  _atom_site_fract_x
  _atom_site_fract_y
  _atom_site_fract_z
  _atom_site_occupancy
  Cd  Cd1       1.0  0.00000  0.50000  0.00000  1.0000
  Cd  Cd2       1.0  0.00000  0.00000  0.50000  1.0000
  H   H1        1.0  0.27416  0.59702  0.17970  1.0000
  H   H2        1.0  0.72584  0.09702  0.32030  1.0000
  H   H3        1.0  0.72584  0.40298  0.82030  1.0000
  H   H4        1.0  0.27416  0.90298  0.67970  1.0000
  H   H5        1.0  0.30794  0.69101  0.98462  1.0000
  H   H6        1.0  0.69206  0.19101  0.51538  1.0000
  H   H7        1.0  0.69206  0.30899  0.01538  1.0000
  H   H8        1.0  0.30794  0.80899  0.48462  1.0000
  H   H9        1.0  0.71637  0.90407  0.31366  1.0000
  H   H10       1.0  0.28363  0.40407  0.18634  1.0000
  H   H11       1.0  0.28363  0.09593  0.68634  1.0000
  H   H12       1.0  0.71637  0.59593  0.81366  1.0000
  H   H13       1.0  0.15146  0.60107  0.90385  1.0000
  H   H14       1.0  0.84854  0.10107  0.59615  1.0000
  H   H15       1.0  0.84854  0.39893  0.09615  1.0000
  H   H16       1.0  0.15146  0.89893  0.40385  1.0000
  H   H17       1.0  0.81236  0.91014  0.58476  1.0000
  H   H18       1.0  0.18764  0.41014  0.91524  1.0000
  H   H19       1.0  0.18764  0.08986  0.41524  1.0000
  H   H20       1.0  0.81236  0.58986  0.08476  1.0000
  H   H21       1.0  0.65381  0.81817  0.51320  1.0000
  H   H22       1.0  0.34619  0.31817  0.98680  1.0000
  H   H23       1.0  0.34619  0.18183  0.48680  1.0000
  H   H24       1.0  0.65381  0.68183  0.01320  1.0000
  H   H25       1.0  0.90458  0.79148  0.39838  1.0000
  H   H26       1.0  0.09542  0.29148  0.10162  1.0000
  H   H27       1.0  0.09542  0.20852  0.60162  1.0000
  H   H28       1.0  0.90458  0.70852  0.89838  1.0000
  H   H29       1.0  0.63284  0.64049  0.17160  1.0000
  H   H30       1.0  0.36716  0.14049  0.32840  1.0000
  H   H31       1.0  0.36716  0.35951  0.82840  1.0000
  H   H32       1.0  0.63284  0.85951  0.67160  1.0000
  H   H33       1.0  0.07188  0.70983  0.09993  1.0000
  H   H34       1.0  0.92812  0.20983  0.40007  1.0000
  H   H35       1.0  0.92812  0.29017  0.90007  1.0000
  H   H36       1.0  0.07188  0.79017  0.59993  1.0000
  H   H37       1.0  0.05947  0.72678  0.37156  1.0000
  H   H38       1.0  0.94053  0.22678  0.12844  1.0000
  H   H39       1.0  0.94053  0.27322  0.62844  1.0000
  H   H40       1.0  0.05947  0.77322  0.87156  1.0000
  H   H41       1.0  0.33703  0.86637  0.32258  1.0000
  H   H42       1.0  0.66297  0.36637  0.17742  1.0000
  H   H43       1.0  0.66297  0.13363  0.67742  1.0000
  H   H44       1.0  0.33703  0.63363  0.82258  1.0000
  H   H45       1.0  0.05382  0.86052  0.22459  1.0000
  H   H46       1.0  0.94618  0.36052  0.27541  1.0000
  H   H47       1.0  0.94618  0.13948  0.77541  1.0000
  H   H48       1.0  0.05382  0.63948  0.72459  1.0000
  H   H49       1.0  0.92052  0.65173  0.24673  1.0000
  H   H50       1.0  0.07948  0.15173  0.25327  1.0000
  H   H51       1.0  0.07948  0.34827  0.75327  1.0000
  H   H52       1.0  0.92052  0.84827  0.74673  1.0000
  H   H53       1.0  0.91984  0.77942  0.12291  1.0000
  H   H54       1.0  0.08016  0.27942  0.37709  1.0000
  H   H55       1.0  0.08016  0.22058  0.87709  1.0000
  H   H56       1.0  0.91984  0.72058  0.62291  1.0000
  C   C1        1.0  0.57200  0.79560  0.31580  1.0000
  C   C2        1.0  0.42800  0.29560  0.18420  1.0000
  C   C3        1.0  0.42800  0.20440  0.68420  1.0000
  C   C4        1.0  0.57200  0.70440  0.81580  1.0000
  C   C5        1.0  0.26480  0.60880  0.12100  1.0000
  C   C6        1.0  0.73520  0.10880  0.37900  1.0000
  C   C7        1.0  0.73520  0.39120  0.87900  1.0000
  C   C8        1.0  0.26480  0.89120  0.62100  1.0000
  C   C9        1.0  0.58510  0.71040  0.23200  1.0000
  C   C10       1.0  0.41490  0.21040  0.26800  1.0000
  C   C11       1.0  0.41490  0.28960  0.76800  1.0000
  C   C12       1.0  0.58510  0.78960  0.73200  1.0000
  C   C13       1.0  0.28350  0.66070  0.01460  1.0000
  C   C14       1.0  0.71650  0.16070  0.48540  1.0000
  C   C15       1.0  0.71650  0.33930  0.98540  1.0000
  C   C16       1.0  0.28350  0.83930  0.51460  1.0000
  C   C17       1.0  0.41330  0.70410  0.18290  1.0000
  C   C18       1.0  0.58670  0.20410  0.31710  1.0000
  C   C19       1.0  0.58670  0.29590  0.81710  1.0000
  C   C20       1.0  0.41330  0.79590  0.68290  1.0000
  C   C21       1.0  0.72250  0.89420  0.37220  1.0000
  C   C22       1.0  0.27750  0.39420  0.12780  1.0000
  C   C23       1.0  0.27750  0.10580  0.62780  1.0000
  C   C24       1.0  0.72250  0.60580  0.87220  1.0000
  C   C25       1.0  0.67010  0.75740  0.30180  1.0000
  C   C26       1.0  0.32990  0.25740  0.19820  1.0000
  C   C27       1.0  0.32990  0.24260  0.69820  1.0000
  C   C28       1.0  0.67010  0.74260  0.80180  1.0000
  C   C29       1.0  0.19690  0.61120  0.97010  1.0000
  C   C30       1.0  0.80310  0.11120  0.52990  1.0000
  C   C31       1.0  0.80310  0.38880  0.02990  1.0000
  C   C32       1.0  0.19690  0.88880  0.47010  1.0000
  C   C33       1.0  0.39040  0.79340  0.26600  1.0000
  C   C34       1.0  0.60960  0.29340  0.23400  1.0000
  C   C35       1.0  0.60960  0.20660  0.73400  1.0000
  C   C36       1.0  0.39040  0.70660  0.76600  1.0000
  C   C37       1.0  0.31110  0.74400  0.19690  1.0000
  C   C38       1.0  0.68890  0.24400  0.30310  1.0000
  C   C39       1.0  0.68890  0.25600  0.80310  1.0000
  C   C40       1.0  0.31110  0.75600  0.69690  1.0000
  C   C41       1.0  0.77300  0.89670  0.52080  1.0000
  C   C42       1.0  0.22700  0.39670  0.97920  1.0000
  C   C43       1.0  0.22700  0.10330  0.47920  1.0000
  C   C44       1.0  0.77300  0.60330  0.02080  1.0000
  C   C45       1.0  0.68600  0.84560  0.48270  1.0000
  C   C46       1.0  0.31400  0.34560  0.01730  1.0000
  C   C47       1.0  0.31400  0.15440  0.51730  1.0000
  C   C48       1.0  0.68600  0.65440  0.98270  1.0000
  C   C49       1.0  0.84900  0.76130  0.35210  1.0000
  C   C50       1.0  0.15100  0.26130  0.14790  1.0000
  C   C51       1.0  0.15100  0.23870  0.64790  1.0000
  C   C52       1.0  0.84900  0.73870  0.85210  1.0000
  C   C53       1.0  0.68640  0.67160  0.21610  1.0000
  C   C54       1.0  0.31360  0.17160  0.28390  1.0000
  C   C55       1.0  0.31360  0.32840  0.78390  1.0000
  C   C56       1.0  0.68640  0.82840  0.71610  1.0000
  C   C57       1.0  0.12840  0.74090  0.14380  1.0000
  C   C58       1.0  0.87160  0.24090  0.35620  1.0000
  C   C59       1.0  0.87160  0.25910  0.85620  1.0000
  C   C60       1.0  0.12840  0.75910  0.64380  1.0000
  C   C61       1.0  0.94140  0.72340  0.33560  1.0000
  C   C62       1.0  0.05860  0.22340  0.16440  1.0000
  C   C63       1.0  0.05860  0.27660  0.66440  1.0000
  C   C64       1.0  0.94140  0.77660  0.83560  1.0000
  C   C65       1.0  0.28690  0.83570  0.27670  1.0000
  C   C66       1.0  0.71310  0.33570  0.22330  1.0000
  C   C67       1.0  0.71310  0.16430  0.72330  1.0000
  C   C68       1.0  0.28690  0.66430  0.77670  1.0000
  C   C69       1.0  0.12010  0.83090  0.22120  1.0000
  C   C70       1.0  0.87990  0.33090  0.27880  1.0000
  C   C71       1.0  0.87990  0.16910  0.77880  1.0000
  C   C72       1.0  0.12010  0.66910  0.72120  1.0000
  C   C73       1.0  0.85850  0.67690  0.26200  1.0000
  C   C74       1.0  0.14150  0.17690  0.23800  1.0000
  C   C75       1.0  0.14150  0.32310  0.73800  1.0000
  C   C76       1.0  0.85850  0.82310  0.76200  1.0000
  C   C77       1.0  0.03780  0.78260  0.15680  1.0000
  C   C78       1.0  0.96220  0.28260  0.34320  1.0000
  C   C79       1.0  0.96220  0.21740  0.84320  1.0000
  C   C80       1.0  0.03780  0.71740  0.65680  1.0000
  N   N1        1.0  0.32980  0.65900  0.11160  1.0000
  N   N2        1.0  0.67020  0.15900  0.38840  1.0000
  N   N3        1.0  0.67020  0.34100  0.88840  1.0000
  N   N4        1.0  0.32980  0.84100  0.61160  1.0000
  N   N5        1.0  0.18640  0.57760  0.03900  1.0000
  N   N6        1.0  0.81360  0.07760  0.46100  1.0000
  N   N7        1.0  0.81360  0.42240  0.96100  1.0000
  N   N8        1.0  0.18640  0.92240  0.53900  1.0000
  N   N9        1.0  0.79620  0.92610  0.45410  1.0000
  N   N10       1.0  0.20380  0.42610  0.04590  1.0000
  N   N11       1.0  0.20380  0.07390  0.54590  1.0000
  N   N12       1.0  0.79620  0.57390  0.95410  1.0000
  N   N13       1.0  0.65580  0.84380  0.38720  1.0000
  N   N14       1.0  0.34420  0.34380  0.11280  1.0000
  N   N15       1.0  0.34420  0.15620  0.61280  1.0000
  N   N16       1.0  0.65580  0.65620  0.88720  1.0000
  H   H57       1.0  0.77168  0.01562  0.68000  1.0000
  H   H58       1.0  0.16785  0.95066  0.92898  1.0000
  H   H59       1.0  0.59633  0.99820  0.73995  1.0000
  H   H60       1.0  0.99219  0.92186  0.98228  1.0000
  H   H61       1.0  0.55831  0.95704  0.87161  1.0000
  H   H62       1.0  0.72202  0.94362  0.97589  1.0000
  H   H63       1.0  0.64281  0.89418  0.89405  1.0000
  C   C81       1.0  0.98610  0.98730  0.79810  1.0000
  C   C82       1.0  0.81750  0.99890  0.74270  1.0000
  C   C83       1.0  0.05180  0.95870  0.88980  1.0000
  C   C84       1.0  0.71010  0.98670  0.77650  1.0000
  C   C85       1.0  0.94790  0.94240  0.92270  1.0000
  C   C86       1.0  0.77800  0.95670  0.86680  1.0000
  C   C87       1.0  0.66440  0.93590  0.90580  1.0000
  S   S1        1.0  0.12518  0.00293  0.75971  1.0000
  O   O1        1.0  0.02790  0.99690  0.65320  1.0000
  O   O2        1.0  0.17480  0.06420  0.78600  1.0000
  O   O3        1.0  0.25620  0.96180  0.80610  1.0000
  H   H64       1.0  0.22832  0.51562  0.82000  1.0000
  H   H65       1.0  0.83215  0.45066  0.57102  1.0000
  H   H66       1.0  0.40367  0.49820  0.76005  1.0000
  H   H67       1.0  0.00781  0.42186  0.51772  1.0000
  H   H68       1.0  0.44169  0.45704  0.62839  1.0000
  H   H69       1.0  0.27798  0.44362  0.52411  1.0000
  H   H70       1.0  0.35719  0.39418  0.60595  1.0000
  C   C88       1.0  0.01390  0.48730  0.70190  1.0000
  C   C89       1.0  0.18250  0.49890  0.75730  1.0000
  C   C90       1.0  0.94820  0.45870  0.61020  1.0000
  C   C91       1.0  0.28990  0.48670  0.72350  1.0000
  C   C92       1.0  0.05210  0.44240  0.57730  1.0000
  C   C93       1.0  0.22200  0.45670  0.63320  1.0000
  C   C94       1.0  0.33560  0.43590  0.59420  1.0000
  S   S2        1.0  0.87482  0.50293  0.74029  1.0000
  O   O4        1.0  0.97210  0.49690  0.84680  1.0000
  O   O5        1.0  0.82520  0.56420  0.71400  1.0000
  O   O6        1.0  0.74380  0.46180  0.69390  1.0000
  H   H71       1.0  0.22832  0.98438  0.32000  1.0000
  H   H72       1.0  0.83215  0.04934  0.07102  1.0000
  H   H73       1.0  0.40367  0.00180  0.26005  1.0000
  H   H74       1.0  0.00781  0.07814  0.01772  1.0000
  H   H75       1.0  0.44169  0.04296  0.12839  1.0000
  H   H76       1.0  0.27798  0.05638  0.02411  1.0000
  H   H77       1.0  0.35719  0.10582  0.10595  1.0000
  C   C95       1.0  0.01390  0.01270  0.20190  1.0000
  C   C96       1.0  0.18250  0.00110  0.25730  1.0000
  C   C97       1.0  0.94820  0.04130  0.11020  1.0000
  C   C98       1.0  0.28990  0.01330  0.22350  1.0000
  C   C99       1.0  0.05210  0.05760  0.07730  1.0000
  C   C100      1.0  0.22200  0.04330  0.13320  1.0000
  C   C101      1.0  0.33560  0.06410  0.09420  1.0000
  S   S3        1.0  0.87482  0.99707  0.24029  1.0000
  O   O7        1.0  0.97210  0.00310  0.34680  1.0000
  O   O8        1.0  0.82520  0.93580  0.21400  1.0000
  O   O9        1.0  0.74380  0.03820  0.19390  1.0000
  H   H78       1.0  0.77168  0.48438  0.18000  1.0000
  H   H79       1.0  0.16785  0.54934  0.42898  1.0000
  H   H80       1.0  0.59633  0.50180  0.23995  1.0000
  H   H81       1.0  0.99219  0.57814  0.48228  1.0000
  H   H82       1.0  0.55831  0.54296  0.37161  1.0000
  H   H83       1.0  0.72202  0.55638  0.47589  1.0000
  H   H84       1.0  0.64281  0.60582  0.39405  1.0000
  C   C102      1.0  0.98610  0.51270  0.29810  1.0000
  C   C103      1.0  0.81750  0.50110  0.24270  1.0000
  C   C104      1.0  0.05180  0.54130  0.38980  1.0000
  C   C105      1.0  0.71010  0.51330  0.27650  1.0000
  C   C106      1.0  0.94790  0.55760  0.42270  1.0000
  C   C107      1.0  0.77800  0.54330  0.36680  1.0000
  C   C108      1.0  0.66440  0.56410  0.40580  1.0000
  S   S4        1.0  0.12518  0.49707  0.25971  1.0000
  O   O10       1.0  0.02790  0.50310  0.15320  1.0000
  O   O11       1.0  0.17480  0.43580  0.28600  1.0000
  O   O12       1.0  0.25620  0.53820  0.30610  1.0000
