data_image0
_chemical_formula_structural       ZnH28C40N8ZnH28C40N8BF4BF4BF4BF4
_chemical_formula_sum              "Zn2 H56 C80 N16 B4 F16"
_cell_length_a       12.9443
_cell_length_b       12.9443
_cell_length_c       16.2124
_cell_angle_alpha    83.7503
_cell_angle_beta     96.2497
_cell_angle_gamma    118.825

_space_group_name_H-M_alt    "P 1"
_space_group_IT_number       1

loop_
  _space_group_symop_operation_xyz
  'x, y, z'

loop_
  _atom_site_type_symbol
  _atom_site_label
  _atom_site_symmetry_multiplicity
  _atom_site_fract_x
  _atom_site_fract_y
  _atom_site_fract_z
  _atom_site_occupancy
  Zn  Zn1       1.0  0.89365  0.89365  0.75000  1.0000
  H   H1        1.0  0.12488  0.87344  0.75031  1.0000
  H   H2        1.0  0.87344  0.12488  0.74969  1.0000
  H   H3        1.0  0.65888  0.90910  0.74708  1.0000
  H   H4        1.0  0.90910  0.65888  0.75292  1.0000
  H   H5        1.0  0.61976  0.77914  0.98131  1.0000
  H   H6        1.0  0.77914  0.61976  0.51869  1.0000
  H   H7        1.0  0.37424  0.12934  0.87753  1.0000
  H   H8        1.0  0.12934  0.37424  0.62247  1.0000
  H   H9        1.0  0.79695  0.78543  0.93404  1.0000
  H   H10       1.0  0.78543  0.79695  0.56596  1.0000
  H   H11       1.0  0.70029  0.06741  0.88676  1.0000
  H   H12       1.0  0.06741  0.70029  0.61324  1.0000
  H   H13       1.0  0.02456  0.97474  0.93221  1.0000
  H   H14       1.0  0.97474  0.02456  0.56779  1.0000
  H   H15       1.0  0.10623  0.69373  0.85808  1.0000
  H   H16       1.0  0.69373  0.10623  0.64192  1.0000
  H   H17       1.0  0.20789  0.97161  0.98205  1.0000
  H   H18       1.0  0.97161  0.20789  0.51795  1.0000
  H   H19       1.0  0.55934  0.28058  0.89754  1.0000
  H   H20       1.0  0.28058  0.55934  0.60246  1.0000
  H   H21       1.0  0.43406  0.64140  0.83933  1.0000
  H   H22       1.0  0.64140  0.43406  0.66067  1.0000
  H   H23       1.0  0.08373  0.51197  0.84200  1.0000
  H   H24       1.0  0.51197  0.08373  0.65800  1.0000
  H   H25       1.0  0.72352  0.24930  0.90442  1.0000
  H   H26       1.0  0.24930  0.72352  0.59558  1.0000
  H   H27       1.0  0.24824  0.48582  0.82909  1.0000
  H   H28       1.0  0.48582  0.24824  0.67091  1.0000
  C   C1        1.0  0.12241  0.89819  0.80146  1.0000
  C   C2        1.0  0.89819  0.12241  0.69854  1.0000
  C   C3        1.0  0.67180  0.87780  0.79915  1.0000
  C   C4        1.0  0.87780  0.67180  0.70085  1.0000
  C   C5        1.0  0.41786  0.99774  0.87322  1.0000
  C   C6        1.0  0.99774  0.41786  0.62678  1.0000
  C   C7        1.0  0.30532  0.89988  0.86506  1.0000
  C   C8        1.0  0.89988  0.30532  0.63494  1.0000
  C   C9        1.0  0.51926  0.97954  0.87336  1.0000
  C   C10       1.0  0.97954  0.51926  0.62664  1.0000
  C   C11       1.0  0.49996  0.86564  0.86304  1.0000
  C   C12       1.0  0.86564  0.49996  0.63696  1.0000
  C   C13       1.0  0.28693  0.78587  0.85749  1.0000
  C   C14       1.0  0.78587  0.28693  0.64251  1.0000
  C   C15       1.0  0.38838  0.76862  0.85410  1.0000
  C   C16       1.0  0.76862  0.38838  0.64590  1.0000
  C   C17       1.0  0.64913  0.80567  0.92890  1.0000
  C   C18       1.0  0.80567  0.64913  0.57110  1.0000
  C   C19       1.0  0.43834  0.11486  0.88060  1.0000
  C   C20       1.0  0.11486  0.43834  0.61940  1.0000
  C   C21       1.0  0.74724  0.80976  0.90240  1.0000
  C   C22       1.0  0.80976  0.74724  0.59760  1.0000
  C   C23       1.0  0.63399  0.07801  0.88550  1.0000
  C   C24       1.0  0.07801  0.63399  0.61450  1.0000
  C   C25       1.0  0.06780  0.95380  0.90180  1.0000
  C   C26       1.0  0.95380  0.06780  0.59820  1.0000
  C   C27       1.0  0.17255  0.68485  0.85380  1.0000
  C   C28       1.0  0.68485  0.17255  0.64620  1.0000
  C   C29       1.0  0.16913  0.95267  0.92980  1.0000
  C   C30       1.0  0.95267  0.16913  0.57020  1.0000
  C   C31       1.0  0.54859  0.20521  0.89190  1.0000
  C   C32       1.0  0.20521  0.54859  0.60810  1.0000
  C   C33       1.0  0.36943  0.65337  0.84290  1.0000
  C   C34       1.0  0.65337  0.36943  0.65710  1.0000
  C   C35       1.0  0.15904  0.57656  0.84420  1.0000
  C   C36       1.0  0.57656  0.15904  0.65580  1.0000
  C   C37       1.0  0.64803  0.18657  0.89540  1.0000
  C   C38       1.0  0.18657  0.64803  0.60460  1.0000
  C   C39       1.0  0.25882  0.56038  0.83740  1.0000
  C   C40       1.0  0.56038  0.25882  0.66260  1.0000
  N   N1        1.0  0.03787  0.91945  0.82169  1.0000
  N   N2        1.0  0.91945  0.03787  0.67831  1.0000
  N   N3        1.0  0.76125  0.85581  0.82084  1.0000
  N   N4        1.0  0.85581  0.76125  0.67916  1.0000
  N   N5        1.0  0.20377  0.91753  0.86505  1.0000
  N   N6        1.0  0.91753  0.20377  0.63495  1.0000
  N   N7        1.0  0.60218  0.84858  0.86264  1.0000
  N   N8        1.0  0.84858  0.60218  0.63736  1.0000
  Zn  Zn2       1.0  0.10635  0.10635  0.25000  1.0000
  H   H29       1.0  0.87512  0.12656  0.24969  1.0000
  H   H30       1.0  0.12656  0.87512  0.25031  1.0000
  H   H31       1.0  0.34112  0.09090  0.25292  1.0000
  H   H32       1.0  0.09090  0.34112  0.24708  1.0000
  H   H33       1.0  0.38024  0.22086  0.01869  1.0000
  H   H34       1.0  0.22086  0.38024  0.48131  1.0000
  H   H35       1.0  0.62576  0.87066  0.12247  1.0000
  H   H36       1.0  0.87066  0.62576  0.37753  1.0000
  H   H37       1.0  0.20305  0.21457  0.06596  1.0000
  H   H38       1.0  0.21457  0.20305  0.43404  1.0000
  H   H39       1.0  0.29971  0.93259  0.11324  1.0000
  H   H40       1.0  0.93259  0.29971  0.38676  1.0000
  H   H41       1.0  0.97544  0.02526  0.06779  1.0000
  H   H42       1.0  0.02526  0.97544  0.43221  1.0000
  H   H43       1.0  0.89377  0.30627  0.14192  1.0000
  H   H44       1.0  0.30627  0.89377  0.35808  1.0000
  H   H45       1.0  0.79211  0.02839  0.01795  1.0000
  H   H46       1.0  0.02839  0.79211  0.48205  1.0000
  H   H47       1.0  0.44066  0.71942  0.10246  1.0000
  H   H48       1.0  0.71942  0.44066  0.39754  1.0000
  H   H49       1.0  0.56594  0.35860  0.16067  1.0000
  H   H50       1.0  0.35860  0.56594  0.33933  1.0000
  H   H51       1.0  0.91627  0.48803  0.15800  1.0000
  H   H52       1.0  0.48803  0.91627  0.34200  1.0000
  H   H53       1.0  0.27648  0.75070  0.09558  1.0000
  H   H54       1.0  0.75070  0.27648  0.40442  1.0000
  H   H55       1.0  0.75176  0.51418  0.17091  1.0000
  H   H56       1.0  0.51418  0.75176  0.32909  1.0000
  C   C41       1.0  0.87759  0.10181  0.19854  1.0000
  C   C42       1.0  0.10181  0.87759  0.30146  1.0000
  C   C43       1.0  0.32820  0.12220  0.20085  1.0000
  C   C44       1.0  0.12220  0.32820  0.29915  1.0000
  C   C45       1.0  0.58214  0.00226  0.12678  1.0000
  C   C46       1.0  0.00226  0.58214  0.37322  1.0000
  C   C47       1.0  0.69468  0.10012  0.13494  1.0000
  C   C48       1.0  0.10012  0.69468  0.36506  1.0000
  C   C49       1.0  0.48074  0.02046  0.12664  1.0000
  C   C50       1.0  0.02046  0.48074  0.37336  1.0000
  C   C51       1.0  0.50004  0.13436  0.13696  1.0000
  C   C52       1.0  0.13436  0.50004  0.36304  1.0000
  C   C53       1.0  0.71307  0.21413  0.14251  1.0000
  C   C54       1.0  0.21413  0.71307  0.35749  1.0000
  C   C55       1.0  0.61162  0.23138  0.14590  1.0000
  C   C56       1.0  0.23138  0.61162  0.35410  1.0000
  C   C57       1.0  0.35087  0.19433  0.07110  1.0000
  C   C58       1.0  0.19433  0.35087  0.42890  1.0000
  C   C59       1.0  0.56166  0.88514  0.11940  1.0000
  C   C60       1.0  0.88514  0.56166  0.38060  1.0000
  C   C61       1.0  0.25276  0.19024  0.09760  1.0000
  C   C62       1.0  0.19024  0.25276  0.40240  1.0000
  C   C63       1.0  0.36601  0.92199  0.11450  1.0000
  C   C64       1.0  0.92199  0.36601  0.38550  1.0000
  C   C65       1.0  0.93220  0.04620  0.09820  1.0000
  C   C66       1.0  0.04620  0.93220  0.40180  1.0000
  C   C67       1.0  0.82745  0.31515  0.14620  1.0000
  C   C68       1.0  0.31515  0.82745  0.35380  1.0000
  C   C69       1.0  0.83087  0.04733  0.07020  1.0000
  C   C70       1.0  0.04733  0.83087  0.42980  1.0000
  C   C71       1.0  0.45141  0.79479  0.10810  1.0000
  C   C72       1.0  0.79479  0.45141  0.39190  1.0000
  C   C73       1.0  0.63057  0.34663  0.15710  1.0000
  C   C74       1.0  0.34663  0.63057  0.34290  1.0000
  C   C75       1.0  0.84096  0.42344  0.15580  1.0000
  C   C76       1.0  0.42344  0.84096  0.34420  1.0000
  C   C77       1.0  0.35197  0.81343  0.10460  1.0000
  C   C78       1.0  0.81343  0.35197  0.39540  1.0000
  C   C79       1.0  0.74118  0.43962  0.16260  1.0000
  C   C80       1.0  0.43962  0.74118  0.33740  1.0000
  N   N9        1.0  0.96213  0.08055  0.17831  1.0000
  N   N10       1.0  0.08055  0.96213  0.32169  1.0000
  N   N11       1.0  0.23875  0.14419  0.17916  1.0000
  N   N12       1.0  0.14419  0.23875  0.32084  1.0000
  N   N13       1.0  0.79623  0.08247  0.13495  1.0000
  N   N14       1.0  0.08247  0.79623  0.36505  1.0000
  N   N15       1.0  0.39782  0.15142  0.13736  1.0000
  N   N16       1.0  0.15142  0.39782  0.36264  1.0000
  B   B1        1.0  0.23860  0.99900  0.59950  1.0000
  F   F1        1.0  0.11920  0.92138  0.60750  1.0000
  F   F2        1.0  0.25175  0.10105  0.55719  1.0000
  F   F3        1.0  0.29718  0.02262  0.67474  1.0000
  F   F4        1.0  0.28427  0.95113  0.55000  1.0000
  B   B2        1.0  0.99900  0.23860  0.90050  1.0000
  F   F5        1.0  0.92138  0.11920  0.89250  1.0000
  F   F6        1.0  0.10105  0.25175  0.94281  1.0000
  F   F7        1.0  0.02262  0.29718  0.82526  1.0000
  F   F8        1.0  0.95113  0.28427  0.95000  1.0000
  B   B3        1.0  0.76140  0.00100  0.40050  1.0000
  F   F9        1.0  0.88080  0.07862  0.39250  1.0000
  F   F10       1.0  0.74825  0.89895  0.44281  1.0000
  F   F11       1.0  0.70282  0.97738  0.32526  1.0000
  F   F12       1.0  0.71573  0.04887  0.45000  1.0000
  B   B4        1.0  0.00100  0.76140  0.09950  1.0000
  F   F13       1.0  0.07862  0.88080  0.10750  1.0000
  F   F14       1.0  0.89895  0.74825  0.05719  1.0000
  F   F15       1.0  0.97738  0.70282  0.17474  1.0000
  F   F16       1.0  0.04887  0.71573  0.05000  1.0000
