data_image0
_chemical_formula_structural       ZnH28C40N8ZnH28C40N8ClO4ClO4ClO4ClO4
_chemical_formula_sum              "Zn2 H56 C80 N16 Cl4 O16"
_cell_length_a       12.9434
_cell_length_b       12.9434
_cell_length_c       16.1723
_cell_angle_alpha    84.7132
_cell_angle_beta     95.2868
_cell_angle_gamma    117.906

_space_group_name_H-M_alt    "P 1"
_space_group_IT_number       1

loop_
  _space_group_symop_operation_xyz
  'x, y, z'

loop_
  _atom_site_type_symbol
  _atom_site_label
  _atom_site_symmetry_multiplicity
  _atom_site_fract_x
  _atom_site_fract_y
  _atom_site_fract_z
  _atom_site_occupancy
  Zn  Zn1       1.0  0.89614  0.89614  0.75000  1.0000
  H   H1        1.0  0.66033  0.91151  0.74862  1.0000
  H   H2        1.0  0.91151  0.66033  0.75138  1.0000
  H   H3        1.0  0.12392  0.86798  0.75205  1.0000
  H   H4        1.0  0.86798  0.12392  0.74795  1.0000
  H   H5        1.0  0.69583  0.06497  0.89041  1.0000
  H   H6        1.0  0.06497  0.69583  0.60959  1.0000
  H   H7        1.0  0.61904  0.77854  0.98103  1.0000
  H   H8        1.0  0.77854  0.61904  0.51897  1.0000
  H   H9        1.0  0.79889  0.79071  0.93328  1.0000
  H   H10       1.0  0.79071  0.79889  0.56672  1.0000
  H   H11       1.0  0.36996  0.12970  0.87379  1.0000
  H   H12       1.0  0.12970  0.36996  0.62621  1.0000
  H   H13       1.0  0.02580  0.98360  0.92993  1.0000
  H   H14       1.0  0.98360  0.02580  0.57007  1.0000
  H   H15       1.0  0.11020  0.69628  0.85902  1.0000
  H   H16       1.0  0.69628  0.11020  0.64098  1.0000
  H   H17       1.0  0.20841  0.98153  0.97981  1.0000
  H   H18       1.0  0.98153  0.20841  0.52019  1.0000
  H   H19       1.0  0.71652  0.24724  0.90502  1.0000
  H   H20       1.0  0.24724  0.71652  0.59498  1.0000
  H   H21       1.0  0.43798  0.64416  0.83670  1.0000
  H   H22       1.0  0.64416  0.43798  0.66330  1.0000
  H   H23       1.0  0.09042  0.51658  0.83916  1.0000
  H   H24       1.0  0.51658  0.09042  0.66084  1.0000
  H   H25       1.0  0.55164  0.27926  0.89401  1.0000
  H   H26       1.0  0.27926  0.55164  0.60599  1.0000
  H   H27       1.0  0.25570  0.49176  0.82603  1.0000
  H   H28       1.0  0.49176  0.25570  0.67397  1.0000
  C   C1        1.0  0.67292  0.87988  0.80020  1.0000
  C   C2        1.0  0.87988  0.67292  0.69980  1.0000
  C   C3        1.0  0.30493  0.90107  0.86550  1.0000
  C   C4        1.0  0.90107  0.30493  0.63450  1.0000
  C   C5        1.0  0.12182  0.89618  0.80240  1.0000
  C   C6        1.0  0.89618  0.12182  0.69760  1.0000
  C   C7        1.0  0.51674  0.97926  0.87440  1.0000
  C   C8        1.0  0.97926  0.51674  0.62560  1.0000
  C   C9        1.0  0.41526  0.99834  0.87280  1.0000
  C   C10       1.0  0.99834  0.41526  0.62720  1.0000
  C   C11       1.0  0.28863  0.78777  0.85780  1.0000
  C   C12       1.0  0.78777  0.28863  0.64220  1.0000
  C   C13       1.0  0.49945  0.86615  0.86370  1.0000
  C   C14       1.0  0.86615  0.49945  0.63630  1.0000
  C   C15       1.0  0.39046  0.77094  0.85440  1.0000
  C   C16       1.0  0.77094  0.39046  0.64560  1.0000
  C   C17       1.0  0.62980  0.07640  0.88750  1.0000
  C   C18       1.0  0.07640  0.62980  0.61250  1.0000
  C   C19       1.0  0.64912  0.80648  0.92890  1.0000
  C   C20       1.0  0.80648  0.64912  0.57110  1.0000
  C   C21       1.0  0.74844  0.81356  0.90180  1.0000
  C   C22       1.0  0.81356  0.74844  0.59820  1.0000
  C   C23       1.0  0.43398  0.11482  0.87830  1.0000
  C   C24       1.0  0.11482  0.43398  0.62170  1.0000
  C   C25       1.0  0.06830  0.95970  0.90030  1.0000
  C   C26       1.0  0.95970  0.06830  0.59970  1.0000
  C   C27       1.0  0.17670  0.68770  0.85370  1.0000
  C   C28       1.0  0.68770  0.17670  0.64630  1.0000
  C   C29       1.0  0.16920  0.95920  0.92830  1.0000
  C   C30       1.0  0.95920  0.16920  0.57170  1.0000
  C   C31       1.0  0.64230  0.18510  0.89560  1.0000
  C   C32       1.0  0.18510  0.64230  0.60440  1.0000
  C   C33       1.0  0.37340  0.65640  0.84120  1.0000
  C   C34       1.0  0.65640  0.37340  0.65880  1.0000
  C   C35       1.0  0.16460  0.58060  0.84230  1.0000
  C   C36       1.0  0.58060  0.16460  0.65770  1.0000
  C   C37       1.0  0.54220  0.20420  0.88980  1.0000
  C   C38       1.0  0.20420  0.54220  0.61020  1.0000
  C   C39       1.0  0.26500  0.56560  0.83510  1.0000
  C   C40       1.0  0.56560  0.26500  0.66490  1.0000
  N   N1        1.0  0.20287  0.91853  0.86480  1.0000
  N   N2        1.0  0.91853  0.20287  0.63520  1.0000
  N   N3        1.0  0.03735  0.91965  0.82170  1.0000
  N   N4        1.0  0.91965  0.03735  0.67830  1.0000
  N   N5        1.0  0.76367  0.85933  0.82090  1.0000
  N   N6        1.0  0.85933  0.76367  0.67910  1.0000
  N   N7        1.0  0.60207  0.84933  0.86310  1.0000
  N   N8        1.0  0.84933  0.60207  0.63690  1.0000
  Zn  Zn2       1.0  0.10386  0.10386  0.25000  1.0000
  H   H29       1.0  0.33967  0.08849  0.25138  1.0000
  H   H30       1.0  0.08849  0.33967  0.24862  1.0000
  H   H31       1.0  0.87608  0.13202  0.24795  1.0000
  H   H32       1.0  0.13202  0.87608  0.25205  1.0000
  H   H33       1.0  0.30417  0.93503  0.10959  1.0000
  H   H34       1.0  0.93503  0.30417  0.39041  1.0000
  H   H35       1.0  0.38096  0.22146  0.01897  1.0000
  H   H36       1.0  0.22146  0.38096  0.48103  1.0000
  H   H37       1.0  0.20111  0.20929  0.06672  1.0000
  H   H38       1.0  0.20929  0.20111  0.43328  1.0000
  H   H39       1.0  0.63004  0.87030  0.12621  1.0000
  H   H40       1.0  0.87030  0.63004  0.37379  1.0000
  H   H41       1.0  0.97420  0.01640  0.07007  1.0000
  H   H42       1.0  0.01640  0.97420  0.42993  1.0000
  H   H43       1.0  0.88980  0.30372  0.14098  1.0000
  H   H44       1.0  0.30372  0.88980  0.35902  1.0000
  H   H45       1.0  0.79159  0.01847  0.02019  1.0000
  H   H46       1.0  0.01847  0.79159  0.47981  1.0000
  H   H47       1.0  0.28348  0.75276  0.09498  1.0000
  H   H48       1.0  0.75276  0.28348  0.40502  1.0000
  H   H49       1.0  0.56202  0.35584  0.16330  1.0000
  H   H50       1.0  0.35584  0.56202  0.33670  1.0000
  H   H51       1.0  0.90958  0.48342  0.16084  1.0000
  H   H52       1.0  0.48342  0.90958  0.33916  1.0000
  H   H53       1.0  0.44836  0.72074  0.10599  1.0000
  H   H54       1.0  0.72074  0.44836  0.39401  1.0000
  H   H55       1.0  0.74430  0.50824  0.17397  1.0000
  H   H56       1.0  0.50824  0.74430  0.32603  1.0000
  C   C41       1.0  0.32708  0.12012  0.19980  1.0000
  C   C42       1.0  0.12012  0.32708  0.30020  1.0000
  C   C43       1.0  0.69507  0.09893  0.13450  1.0000
  C   C44       1.0  0.09893  0.69507  0.36550  1.0000
  C   C45       1.0  0.87818  0.10382  0.19760  1.0000
  C   C46       1.0  0.10382  0.87818  0.30240  1.0000
  C   C47       1.0  0.48326  0.02074  0.12560  1.0000
  C   C48       1.0  0.02074  0.48326  0.37440  1.0000
  C   C49       1.0  0.58474  0.00166  0.12720  1.0000
  C   C50       1.0  0.00166  0.58474  0.37280  1.0000
  C   C51       1.0  0.71137  0.21223  0.14220  1.0000
  C   C52       1.0  0.21223  0.71137  0.35780  1.0000
  C   C53       1.0  0.50055  0.13385  0.13630  1.0000
  C   C54       1.0  0.13385  0.50055  0.36370  1.0000
  C   C55       1.0  0.60954  0.22906  0.14560  1.0000
  C   C56       1.0  0.22906  0.60954  0.35440  1.0000
  C   C57       1.0  0.37020  0.92360  0.11250  1.0000
  C   C58       1.0  0.92360  0.37020  0.38750  1.0000
  C   C59       1.0  0.35088  0.19352  0.07110  1.0000
  C   C60       1.0  0.19352  0.35088  0.42890  1.0000
  C   C61       1.0  0.25156  0.18644  0.09820  1.0000
  C   C62       1.0  0.18644  0.25156  0.40180  1.0000
  C   C63       1.0  0.56602  0.88518  0.12170  1.0000
  C   C64       1.0  0.88518  0.56602  0.37830  1.0000
  C   C65       1.0  0.93170  0.04030  0.09970  1.0000
  C   C66       1.0  0.04030  0.93170  0.40030  1.0000
  C   C67       1.0  0.82330  0.31230  0.14630  1.0000
  C   C68       1.0  0.31230  0.82330  0.35370  1.0000
  C   C69       1.0  0.83080  0.04080  0.07170  1.0000
  C   C70       1.0  0.04080  0.83080  0.42830  1.0000
  C   C71       1.0  0.35770  0.81490  0.10440  1.0000
  C   C72       1.0  0.81490  0.35770  0.39560  1.0000
  C   C73       1.0  0.62660  0.34360  0.15880  1.0000
  C   C74       1.0  0.34360  0.62660  0.34120  1.0000
  C   C75       1.0  0.83540  0.41940  0.15770  1.0000
  C   C76       1.0  0.41940  0.83540  0.34230  1.0000
  C   C77       1.0  0.45780  0.79580  0.11020  1.0000
  C   C78       1.0  0.79580  0.45780  0.38980  1.0000
  C   C79       1.0  0.73500  0.43440  0.16490  1.0000
  C   C80       1.0  0.43440  0.73500  0.33510  1.0000
  N   N9        1.0  0.79713  0.08147  0.13520  1.0000
  N   N10       1.0  0.08147  0.79713  0.36480  1.0000
  N   N11       1.0  0.96265  0.08035  0.17830  1.0000
  N   N12       1.0  0.08035  0.96265  0.32170  1.0000
  N   N13       1.0  0.23633  0.14067  0.17910  1.0000
  N   N14       1.0  0.14067  0.23633  0.32090  1.0000
  N   N15       1.0  0.39793  0.15067  0.13690  1.0000
  N   N16       1.0  0.15067  0.39793  0.36310  1.0000
  Cl  Cl1       1.0  0.99644  0.24196  0.90281  1.0000
  O   O1        1.0  0.92080  0.12000  0.89320  1.0000
  O   O2        1.0  0.10160  0.25740  0.94470  1.0000
  O   O3        1.0  0.01950  0.30190  0.82490  1.0000
  O   O4        1.0  0.94430  0.28870  0.95380  1.0000
  Cl  Cl2       1.0  0.24196  0.99644  0.59719  1.0000
  O   O5        1.0  0.12000  0.92080  0.60680  1.0000
  O   O6        1.0  0.25740  0.10160  0.55530  1.0000
  O   O7        1.0  0.30190  0.01950  0.67510  1.0000
  O   O8        1.0  0.28870  0.94430  0.54620  1.0000
  Cl  Cl3       1.0  0.00356  0.75804  0.09719  1.0000
  O   O9        1.0  0.07920  0.88000  0.10680  1.0000
  O   O10       1.0  0.89840  0.74260  0.05530  1.0000
  O   O11       1.0  0.98050  0.69810  0.17510  1.0000
  O   O12       1.0  0.05570  0.71130  0.04620  1.0000
  Cl  Cl4       1.0  0.75804  0.00356  0.40281  1.0000
  O   O13       1.0  0.88000  0.07920  0.39320  1.0000
  O   O14       1.0  0.74260  0.89840  0.44470  1.0000
  O   O15       1.0  0.69810  0.98050  0.32490  1.0000
  O   O16       1.0  0.71130  0.05570  0.45380  1.0000
