# generated using pymatgen
data_YH3(C4O3)2
_symmetry_space_group_name_H-M   'P 1'
_cell_length_a   8.93480000
_cell_length_b   9.66080000
_cell_length_c   17.01700000
_cell_angle_alpha   90.00000000
_cell_angle_beta   102.77400000
_cell_angle_gamma   90.00000000
_symmetry_Int_Tables_number   1
_chemical_formula_structural   YH3(C4O3)2
_chemical_formula_sum   'Y4 H12 C32 O24'
_cell_volume   1432.50712568
_cell_formula_units_Z   4
loop_
 _symmetry_equiv_pos_site_id
 _symmetry_equiv_pos_as_xyz
  1  'x, y, z'
loop_
 _atom_site_type_symbol
 _atom_site_label
 _atom_site_symmetry_multiplicity
 _atom_site_fract_x
 _atom_site_fract_y
 _atom_site_fract_z
 _atom_site_occupancy
  Y  Y1  1  0.35961000  0.79057000  0.28713000  1.0
  Y  Y2  1  0.14039000  0.29057000  0.71287000  1.0
  Y  Y3  1  0.64039000  0.20943000  0.71287000  1.0
  Y  Y4  1  0.85961000  0.70943000  0.28713000  1.0
  H  H1  1  0.76310000  0.52690000  0.53790000  1.0
  H  H2  1  0.73690000  0.02690000  0.46210000  1.0
  H  H3  1  0.23690000  0.47310000  0.46210000  1.0
  H  H4  1  0.26310000  0.97310000  0.53790000  1.0
  H  H5  1  0.30940000  0.94250000  0.06600000  1.0
  H  H6  1  0.19060000  0.44250000  0.93400000  1.0
  H  H7  1  0.69060000  0.05750000  0.93400000  1.0
  H  H8  1  0.80940000  0.55750000  0.06600000  1.0
  H  H9  1  0.80950000  0.86870000  0.09600000  1.0
  H  H10  1  0.69050000  0.36870000  0.90400000  1.0
  H  H11  1  0.19050000  0.13130000  0.90400000  1.0
  H  H12  1  0.30950000  0.63130000  0.09600000  1.0
  C  C1  1  0.67160000  0.63030000  0.39590000  1.0
  C  C2  1  0.82840000  0.13030000  0.60410000  1.0
  C  C3  1  0.32840000  0.36970000  0.60410000  1.0
  C  C4  1  0.17160000  0.86970000  0.39590000  1.0
  C  C5  1  0.58020000  0.56430000  0.44860000  1.0
  C  C6  1  0.91980000  0.06430000  0.55140000  1.0
  C  C7  1  0.41980000  0.43570000  0.55140000  1.0
  C  C8  1  0.08020000  0.93570000  0.44860000  1.0
  C  C9  1  0.41710000  0.55010000  0.42320000  1.0
  C  C10  1  0.08290000  0.05010000  0.57680000  1.0
  C  C11  1  0.58290000  0.44990000  0.57680000  1.0
  C  C12  1  0.91710000  0.94990000  0.42320000  1.0
  C  C13  1  0.65720000  0.51550000  0.52300000  1.0
  C  C14  1  0.84280000  0.01550000  0.47700000  1.0
  C  C15  1  0.34280000  0.48450000  0.47700000  1.0
  C  C16  1  0.15720000  0.98450000  0.52300000  1.0
  C  C17  1  0.56780000  0.84590000  0.14910000  1.0
  C  C18  1  0.93220000  0.34590000  0.85090000  1.0
  C  C19  1  0.43220000  0.15410000  0.85090000  1.0
  C  C20  1  0.06780000  0.65410000  0.14910000  1.0
  C  C21  1  0.53560000  0.92380000  0.07140000  1.0
  C  C22  1  0.96440000  0.42380000  0.92860000  1.0
  C  C23  1  0.46440000  0.07620000  0.92860000  1.0
  C  C24  1  0.03560000  0.57620000  0.07140000  1.0
  C  C25  1  0.65300000  0.95650000  0.03070000  1.0
  C  C26  1  0.84700000  0.45650000  0.96930000  1.0
  C  C27  1  0.34700000  0.04350000  0.96930000  1.0
  C  C28  1  0.15300000  0.54350000  0.03070000  1.0
  C  C29  1  0.38590000  0.96650000  0.03940000  1.0
  C  C30  1  0.11410000  0.46650000  0.96060000  1.0
  C  C31  1  0.61410000  0.03350000  0.96060000  1.0
  C  C32  1  0.88590000  0.53350000  0.03940000  1.0
  O  O1  1  0.60730000  0.69950000  0.33390000  1.0
  O  O2  1  0.89270000  0.19950000  0.66610000  1.0
  O  O3  1  0.39270000  0.30050000  0.66610000  1.0
  O  O4  1  0.10730000  0.80050000  0.33390000  1.0
  O  O5  1  0.81520000  0.61000000  0.40900000  1.0
  O  O6  1  0.68480000  0.11000000  0.59100000  1.0
  O  O7  1  0.18480000  0.39000000  0.59100000  1.0
  O  O8  1  0.31520000  0.89000000  0.40900000  1.0
  O  O9  1  0.33710000  0.59200000  0.35090000  1.0
  O  O10  1  0.16290000  0.09200000  0.64910000  1.0
  O  O11  1  0.66290000  0.40800000  0.64910000  1.0
  O  O12  1  0.83710000  0.90800000  0.35090000  1.0
  O  O13  1  0.70730000  0.83700000  0.18650000  1.0
  O  O14  1  0.79270000  0.33700000  0.81350000  1.0
  O  O15  1  0.29270000  0.16300000  0.81350000  1.0
  O  O16  1  0.20730000  0.66300000  0.18650000  1.0
  O  O17  1  0.45800000  0.79370000  0.17380000  1.0
  O  O18  1  0.04200000  0.29370000  0.82620000  1.0
  O  O19  1  0.54200000  0.20630000  0.82620000  1.0
  O  O20  1  0.95800000  0.70630000  0.17380000  1.0
  O  O21  1  0.80000000  0.91550000  0.05500000  1.0
  O  O22  1  0.70000000  0.41550000  0.94500000  1.0
  O  O23  1  0.20000000  0.08450000  0.94500000  1.0
  O  O24  1  0.30000000  0.58450000  0.05500000  1.0
