# generated using pymatgen
data_YO6
_symmetry_space_group_name_H-M   'P 1'
_cell_length_a   8.93480000
_cell_length_b   9.66080000
_cell_length_c   17.01700000
_cell_angle_alpha   90.00000000
_cell_angle_beta   102.77400000
_cell_angle_gamma   90.00000000
_symmetry_Int_Tables_number   1
_chemical_formula_structural   YO6
_chemical_formula_sum   'Y1 O6'
_cell_volume   1432.50712568
_cell_formula_units_Z   1
loop_
 _symmetry_equiv_pos_site_id
 _symmetry_equiv_pos_as_xyz
  1  'x, y, z'
loop_
 _atom_site_type_symbol
 _atom_site_label
 _atom_site_symmetry_multiplicity
 _atom_site_fract_x
 _atom_site_fract_y
 _atom_site_fract_z
 _atom_site_occupancy
  Y  Y0  1  0.85961000  0.70943000  0.28713000  1
  O  O1  1  0.60730000  0.69950000  0.33390000  1
  O  O2  1  1.10730000  0.80050000  0.33390000  1
  O  O3  1  0.81520000  0.61000000  0.40900000  1
  O  O4  1  0.83710000  0.90800000  0.35090000  1
  O  O5  1  0.70730000  0.83700000  0.18650000  1
  O  O6  1  0.95800000  0.70630000  0.17380000  1
