# generated using pymatgen
data_YO8
_symmetry_space_group_name_H-M   'P 1'
_cell_length_a   8.93480000
_cell_length_b   9.66080000
_cell_length_c   17.01700000
_cell_angle_alpha   90.00000000
_cell_angle_beta   102.77400000
_cell_angle_gamma   90.00000000
_symmetry_Int_Tables_number   1
_chemical_formula_structural   YO8
_chemical_formula_sum   'Y1 O8'
_cell_volume   1432.50712568
_cell_formula_units_Z   1
loop_
 _symmetry_equiv_pos_site_id
 _symmetry_equiv_pos_as_xyz
  1  'x, y, z'
loop_
 _atom_site_type_symbol
 _atom_site_label
 _atom_site_symmetry_multiplicity
 _atom_site_fract_x
 _atom_site_fract_y
 _atom_site_fract_z
 _atom_site_occupancy
  Y  Y0  1  0.64039000  0.20943000  0.71287000  1
  O  O1  1  0.89270000  0.19950000  0.66610000  1
  O  O2  1  0.39270000  0.30050000  0.66610000  1
  O  O3  1  0.68480000  0.11000000  0.59100000  1
  O  O4  1  0.66290000  0.40800000  0.64910000  1
  O  O5  1  0.79270000  0.33700000  0.81350000  1
  O  O6  1  0.54200000  0.20630000  0.82620000  1
  O  O7  1  0.78040000  0.02100000  0.77710000  1
  O  O8  1  0.46240000  0.02510000  0.68540000  1
