# generated using pymatgen
data_YH12C11NO10
_symmetry_space_group_name_H-M   'P 1'
_cell_length_a   8.93480000
_cell_length_b   9.66080000
_cell_length_c   17.01700000
_cell_angle_alpha   90.00000000
_cell_angle_beta   102.77400000
_cell_angle_gamma   90.00000000
_symmetry_Int_Tables_number   1
_chemical_formula_structural   YH12C11NO10
_chemical_formula_sum   'Y4 H48 C44 N4 O40'
_cell_volume   1432.50712568
_cell_formula_units_Z   4
loop_
 _symmetry_equiv_pos_site_id
 _symmetry_equiv_pos_as_xyz
  1  'x, y, z'
loop_
 _atom_site_type_symbol
 _atom_site_label
 _atom_site_symmetry_multiplicity
 _atom_site_fract_x
 _atom_site_fract_y
 _atom_site_fract_z
 _atom_site_occupancy
  Y  Y0  1  0.35961000  0.79057000  0.28713000  1.0
  Y  Y1  1  0.14039000  0.29057000  0.71287000  1.0
  Y  Y2  1  0.64039000  0.20943000  0.71287000  1.0
  Y  Y3  1  0.85961000  0.70943000  0.28713000  1.0
  H  H4  1  0.76310000  0.52690000  0.53790000  1.0
  H  H5  1  0.73690000  0.02690000  0.46210000  1.0
  H  H6  1  0.23690000  0.47310000  0.46210000  1.0
  H  H7  1  0.26310000  0.97310000  0.53790000  1.0
  H  H8  1  0.30940000  0.94250000  0.06600000  1.0
  H  H9  1  0.19060000  0.44250000  0.93400000  1.0
  H  H10  1  0.69060000  0.05750000  0.93400000  1.0
  H  H11  1  0.80940000  0.55750000  0.06600000  1.0
  H  H12  1  0.05120000  0.02410000  0.26360000  1.0
  H  H13  1  0.44880000  0.52410000  0.73640000  1.0
  H  H14  1  0.94880000  0.97590000  0.73640000  1.0
  H  H15  1  0.55120000  0.47590000  0.26360000  1.0
  H  H16  1  0.79600000  0.16950000  0.15080000  1.0
  H  H17  1  0.70400000  0.66950000  0.84920000  1.0
  H  H18  1  0.20400000  0.83050000  0.84920000  1.0
  H  H19  1  0.29600000  0.33050000  0.15080000  1.0
  H  H20  1  0.89140000  0.29810000  0.18960000  1.0
  H  H21  1  0.60860000  0.79810000  0.81040000  1.0
  H  H22  1  0.10860000  0.70190000  0.81040000  1.0
  H  H23  1  0.39140000  0.20190000  0.18960000  1.0
  H  H24  1  0.86720000  0.17230000  0.24360000  1.0
  H  H25  1  0.63280000  0.67230000  0.75640000  1.0
  H  H26  1  0.13280000  0.82770000  0.75640000  1.0
  H  H27  1  0.36720000  0.32770000  0.24360000  1.0
  H  H28  1  0.15910000  0.12190000  0.09620000  1.0
  H  H29  1  0.34090000  0.62190000  0.90380000  1.0
  H  H30  1  0.84090000  0.87810000  0.90380000  1.0
  H  H31  1  0.65910000  0.37810000  0.09620000  1.0
  H  H32  1  0.06800000  0.26170000  0.08960000  1.0
  H  H33  1  0.43200000  0.76170000  0.91040000  1.0
  H  H34  1  0.93200000  0.73830000  0.91040000  1.0
  H  H35  1  0.56800000  0.23830000  0.08960000  1.0
  H  H36  1  0.98400000  0.12510000  0.05480000  1.0
  H  H37  1  0.51600000  0.62510000  0.94520000  1.0
  H  H38  1  0.01600000  0.87490000  0.94520000  1.0
  H  H39  1  0.48400000  0.37490000  0.05480000  1.0
  H  H40  1  0.80950000  0.86870000  0.09600000  1.0
  H  H41  1  0.69050000  0.36870000  0.90400000  1.0
  H  H42  1  0.19050000  0.13130000  0.90400000  1.0
  H  H43  1  0.30950000  0.63130000  0.09600000  1.0
  H  H44  1  0.62600000  0.97100000  0.31600000  1.0
  H  H45  1  0.87400000  0.47100000  0.68400000  1.0
  H  H46  1  0.37400000  0.02900000  0.68400000  1.0
  H  H47  1  0.12600000  0.52900000  0.31600000  1.0
  H  H48  1  0.53000000  0.04900000  0.33300000  1.0
  H  H49  1  0.97000000  0.54900000  0.66700000  1.0
  H  H50  1  0.47000000  0.95100000  0.66700000  1.0
  H  H51  1  0.03000000  0.45100000  0.33300000  1.0
  C  C52  1  0.67160000  0.63030000  0.39590000  1.0
  C  C53  1  0.82840000  0.13030000  0.60410000  1.0
  C  C54  1  0.32840000  0.36970000  0.60410000  1.0
  C  C55  1  0.17160000  0.86970000  0.39590000  1.0
  C  C56  1  0.58020000  0.56430000  0.44860000  1.0
  C  C57  1  0.91980000  0.06430000  0.55140000  1.0
  C  C58  1  0.41980000  0.43570000  0.55140000  1.0
  C  C59  1  0.08020000  0.93570000  0.44860000  1.0
  C  C60  1  0.41710000  0.55010000  0.42320000  1.0
  C  C61  1  0.08290000  0.05010000  0.57680000  1.0
  C  C62  1  0.58290000  0.44990000  0.57680000  1.0
  C  C63  1  0.91710000  0.94990000  0.42320000  1.0
  C  C64  1  0.65720000  0.51550000  0.52300000  1.0
  C  C65  1  0.84280000  0.01550000  0.47700000  1.0
  C  C66  1  0.34280000  0.48450000  0.47700000  1.0
  C  C67  1  0.15720000  0.98450000  0.52300000  1.0
  C  C68  1  0.56780000  0.84590000  0.14910000  1.0
  C  C69  1  0.93220000  0.34590000  0.85090000  1.0
  C  C70  1  0.43220000  0.15410000  0.85090000  1.0
  C  C71  1  0.06780000  0.65410000  0.14910000  1.0
  C  C72  1  0.53560000  0.92380000  0.07140000  1.0
  C  C73  1  0.96440000  0.42380000  0.92860000  1.0
  C  C74  1  0.46440000  0.07620000  0.92860000  1.0
  C  C75  1  0.03560000  0.57620000  0.07140000  1.0
  C  C76  1  0.65300000  0.95650000  0.03070000  1.0
  C  C77  1  0.84700000  0.45650000  0.96930000  1.0
  C  C78  1  0.34700000  0.04350000  0.96930000  1.0
  C  C79  1  0.15300000  0.54350000  0.03070000  1.0
  C  C80  1  0.38590000  0.96650000  0.03940000  1.0
  C  C81  1  0.11410000  0.46650000  0.96060000  1.0
  C  C82  1  0.61410000  0.03350000  0.96060000  1.0
  C  C83  1  0.88590000  0.53350000  0.03940000  1.0
  C  C84  1  0.09600000  0.04740000  0.22100000  1.0
  C  C85  1  0.40400000  0.54740000  0.77900000  1.0
  C  C86  1  0.90400000  0.95260000  0.77900000  1.0
  C  C87  1  0.59600000  0.45260000  0.22100000  1.0
  C  C88  1  0.88220000  0.19920000  0.19160000  1.0
  C  C89  1  0.61780000  0.69920000  0.80840000  1.0
  C  C90  1  0.11780000  0.80080000  0.80840000  1.0
  C  C91  1  0.38220000  0.30080000  0.19160000  1.0
  C  C92  1  0.06200000  0.16400000  0.09720000  1.0
  C  C93  1  0.43800000  0.66400000  0.90280000  1.0
  C  C94  1  0.93800000  0.83600000  0.90280000  1.0
  C  C95  1  0.56200000  0.33600000  0.09720000  1.0
  N  N96  1  0.02240000  0.13490000  0.17760000  1.0
  N  N97  1  0.47760000  0.63490000  0.82240000  1.0
  N  N98  1  0.97760000  0.86510000  0.82240000  1.0
  N  N99  1  0.52240000  0.36510000  0.17760000  1.0
  O  O100  1  0.60730000  0.69950000  0.33390000  1.0
  O  O101  1  0.89270000  0.19950000  0.66610000  1.0
  O  O102  1  0.39270000  0.30050000  0.66610000  1.0
  O  O103  1  0.10730000  0.80050000  0.33390000  1.0
  O  O104  1  0.81520000  0.61000000  0.40900000  1.0
  O  O105  1  0.68480000  0.11000000  0.59100000  1.0
  O  O106  1  0.18480000  0.39000000  0.59100000  1.0
  O  O107  1  0.31520000  0.89000000  0.40900000  1.0
  O  O108  1  0.33710000  0.59200000  0.35090000  1.0
  O  O109  1  0.16290000  0.09200000  0.64910000  1.0
  O  O110  1  0.66290000  0.40800000  0.64910000  1.0
  O  O111  1  0.83710000  0.90800000  0.35090000  1.0
  O  O112  1  0.70730000  0.83700000  0.18650000  1.0
  O  O113  1  0.79270000  0.33700000  0.81350000  1.0
  O  O114  1  0.29270000  0.16300000  0.81350000  1.0
  O  O115  1  0.20730000  0.66300000  0.18650000  1.0
  O  O116  1  0.45800000  0.79370000  0.17380000  1.0
  O  O117  1  0.04200000  0.29370000  0.82620000  1.0
  O  O118  1  0.54200000  0.20630000  0.82620000  1.0
  O  O119  1  0.95800000  0.70630000  0.17380000  1.0
  O  O120  1  0.80000000  0.91550000  0.05500000  1.0
  O  O121  1  0.70000000  0.41550000  0.94500000  1.0
  O  O122  1  0.20000000  0.08450000  0.94500000  1.0
  O  O123  1  0.30000000  0.58450000  0.05500000  1.0
  O  O124  1  0.21960000  0.97900000  0.22290000  1.0
  O  O125  1  0.28040000  0.47900000  0.77710000  1.0
  O  O126  1  0.78040000  0.02100000  0.77710000  1.0
  O  O127  1  0.71960000  0.52100000  0.22290000  1.0
  O  O128  1  0.53760000  0.97490000  0.31460000  1.0
  O  O129  1  0.96240000  0.47490000  0.68540000  1.0
  O  O130  1  0.46240000  0.02510000  0.68540000  1.0
  O  O131  1  0.03760000  0.52510000  0.31460000  1.0
  O  O132  1  0.12260000  0.24700000  0.35780000  1.0
  O  O133  1  0.37740000  0.74700000  0.64220000  1.0
  O  O134  1  0.87740000  0.75300000  0.64220000  1.0
  O  O135  1  0.62260000  0.25300000  0.35780000  1.0
  O  O136  1  0.43080000  0.16300000  0.43120000  1.0
  O  O137  1  0.06920000  0.66300000  0.56880000  1.0
  O  O138  1  0.56920000  0.83700000  0.56880000  1.0
  O  O139  1  0.93080000  0.33700000  0.43120000  1.0
