# generated using pymatgen
data_ZnH36C42N8(ClO5)2
_symmetry_space_group_name_H-M   'P 1'
_cell_length_a   12.94341490
_cell_length_b   12.94341490
_cell_length_c   16.17230000
_cell_angle_alpha   84.71319093
_cell_angle_beta   95.28680907
_cell_angle_gamma   117.90600271
_symmetry_Int_Tables_number   1
_chemical_formula_structural   ZnH36C42N8(ClO5)2
_chemical_formula_sum   'Zn2 H72 C84 N16 Cl4 O20'
_cell_volume   2380.43457820
_cell_formula_units_Z   2
loop_
 _symmetry_equiv_pos_site_id
 _symmetry_equiv_pos_as_xyz
  1  'x, y, z'
loop_
 _atom_site_type_symbol
 _atom_site_label
 _atom_site_symmetry_multiplicity
 _atom_site_fract_x
 _atom_site_fract_y
 _atom_site_fract_z
 _atom_site_occupancy
  Zn  Zn0  1  0.10386000  0.10386000  0.25000000  1
  Zn  Zn1  1  0.89614000  0.89614000  0.75000000  1
  H  H2  1  0.33967000  0.08849000  0.25138000  1
  H  H3  1  0.08849000  0.33967000  0.24862000  1
  H  H4  1  0.66033000  0.91151000  0.74862000  1
  H  H5  1  0.91151000  0.66033000  0.75138000  1
  H  H6  1  0.87608000  0.13202000  0.24795000  1
  H  H7  1  0.13202000  0.87608000  0.25205000  1
  H  H8  1  0.12392000  0.86798000  0.75205000  1
  H  H9  1  0.86798000  0.12392000  0.74795000  1
  H  H10  1  0.65980000  0.90142000  0.56381000  1
  H  H11  1  0.90142000  0.65980000  0.93619000  1
  H  H12  1  0.34020000  0.09858000  0.43619000  1
  H  H13  1  0.09858000  0.34020000  0.06381000  1
  H  H14  1  0.30417000  0.93503000  0.10959000  1
  H  H15  1  0.93503000  0.30417000  0.39041000  1
  H  H16  1  0.69583000  0.06497000  0.89041000  1
  H  H17  1  0.06497000  0.69583000  0.60959000  1
  H  H18  1  0.38096000  0.22146000  0.01897000  1
  H  H19  1  0.22146000  0.38096000  0.48103000  1
  H  H20  1  0.61904000  0.77854000  0.98103000  1
  H  H21  1  0.77854000  0.61904000  0.51897000  1
  H  H22  1  0.20111000  0.20929000  0.06672000  1
  H  H23  1  0.20929000  0.20111000  0.43328000  1
  H  H24  1  0.79889000  0.79071000  0.93328000  1
  H  H25  1  0.79071000  0.79889000  0.56672000  1
  H  H26  1  0.63004000  0.87030000  0.12621000  1
  H  H27  1  0.87030000  0.63004000  0.37379000  1
  H  H28  1  0.36996000  0.12970000  0.87379000  1
  H  H29  1  0.12970000  0.36996000  0.62621000  1
  H  H30  1  0.97420000  0.01640000  0.07007000  1
  H  H31  1  0.01640000  0.97420000  0.42993000  1
  H  H32  1  0.02580000  0.98360000  0.92993000  1
  H  H33  1  0.98360000  0.02580000  0.57007000  1
  H  H34  1  0.88980000  0.30372000  0.14098000  1
  H  H35  1  0.30372000  0.88980000  0.35902000  1
  H  H36  1  0.11020000  0.69628000  0.85902000  1
  H  H37  1  0.69628000  0.11020000  0.64098000  1
  H  H38  1  0.79159000  0.01847000  0.02019000  1
  H  H39  1  0.01847000  0.79159000  0.47981000  1
  H  H40  1  0.20841000  0.98153000  0.97981000  1
  H  H41  1  0.98153000  0.20841000  0.52019000  1
  H  H42  1  0.28348000  0.75276000  0.09498000  1
  H  H43  1  0.75276000  0.28348000  0.40502000  1
  H  H44  1  0.71652000  0.24724000  0.90502000  1
  H  H45  1  0.24724000  0.71652000  0.59498000  1
  H  H46  1  0.56202000  0.35584000  0.16330000  1
  H  H47  1  0.35584000  0.56202000  0.33670000  1
  H  H48  1  0.43798000  0.64416000  0.83670000  1
  H  H49  1  0.64416000  0.43798000  0.66330000  1
  H  H50  1  0.90958000  0.48342000  0.16084000  1
  H  H51  1  0.48342000  0.90958000  0.33916000  1
  H  H52  1  0.09042000  0.51658000  0.83916000  1
  H  H53  1  0.51658000  0.09042000  0.66084000  1
  H  H54  1  0.44836000  0.72074000  0.10599000  1
  H  H55  1  0.72074000  0.44836000  0.39401000  1
  H  H56  1  0.55164000  0.27926000  0.89401000  1
  H  H57  1  0.27926000  0.55164000  0.60599000  1
  H  H58  1  0.74430000  0.50824000  0.17397000  1
  H  H59  1  0.50824000  0.74430000  0.32603000  1
  H  H60  1  0.25570000  0.49176000  0.82603000  1
  H  H61  1  0.49176000  0.25570000  0.67397000  1
  H  H62  1  0.46767000  0.83313000  0.63719000  1
  H  H63  1  0.83313000  0.46767000  0.86281000  1
  H  H64  1  0.53233000  0.16687000  0.36281000  1
  H  H65  1  0.16687000  0.53233000  0.13719000  1
  H  H66  1  0.49938000  0.90730000  0.55252000  1
  H  H67  1  0.90730000  0.49938000  0.94748000  1
  H  H68  1  0.50062000  0.09270000  0.44748000  1
  H  H69  1  0.09270000  0.50062000  0.05252000  1
  H  H70  1  0.47425000  0.77613000  0.55772000  1
  H  H71  1  0.77613000  0.47425000  0.94228000  1
  H  H72  1  0.52575000  0.22387000  0.44228000  1
  H  H73  1  0.22387000  0.52575000  0.05772000  1
  C  C74  1  0.32708000  0.12012000  0.19980000  1
  C  C75  1  0.12012000  0.32708000  0.30020000  1
  C  C76  1  0.67292000  0.87988000  0.80020000  1
  C  C77  1  0.87988000  0.67292000  0.69980000  1
  C  C78  1  0.69507000  0.09893000  0.13450000  1
  C  C79  1  0.09893000  0.69507000  0.36550000  1
  C  C80  1  0.30493000  0.90107000  0.86550000  1
  C  C81  1  0.90107000  0.30493000  0.63450000  1
  C  C82  1  0.87818000  0.10382000  0.19760000  1
  C  C83  1  0.10382000  0.87818000  0.30240000  1
  C  C84  1  0.12182000  0.89618000  0.80240000  1
  C  C85  1  0.89618000  0.12182000  0.69760000  1
  C  C86  1  0.48326000  0.02074000  0.12560000  1
  C  C87  1  0.02074000  0.48326000  0.37440000  1
  C  C88  1  0.51674000  0.97926000  0.87440000  1
  C  C89  1  0.97926000  0.51674000  0.62560000  1
  C  C90  1  0.58474000  0.00166000  0.12720000  1
  C  C91  1  0.00166000  0.58474000  0.37280000  1
  C  C92  1  0.41526000  0.99834000  0.87280000  1
  C  C93  1  0.99834000  0.41526000  0.62720000  1
  C  C94  1  0.71137000  0.21223000  0.14220000  1
  C  C95  1  0.21223000  0.71137000  0.35780000  1
  C  C96  1  0.28863000  0.78777000  0.85780000  1
  C  C97  1  0.78777000  0.28863000  0.64220000  1
  C  C98  1  0.50055000  0.13385000  0.13630000  1
  C  C99  1  0.13385000  0.50055000  0.36370000  1
  C  C100  1  0.49945000  0.86615000  0.86370000  1
  C  C101  1  0.86615000  0.49945000  0.63630000  1
  C  C102  1  0.60954000  0.22906000  0.14560000  1
  C  C103  1  0.22906000  0.60954000  0.35440000  1
  C  C104  1  0.39046000  0.77094000  0.85440000  1
  C  C105  1  0.77094000  0.39046000  0.64560000  1
  C  C106  1  0.37020000  0.92360000  0.11250000  1
  C  C107  1  0.92360000  0.37020000  0.38750000  1
  C  C108  1  0.62980000  0.07640000  0.88750000  1
  C  C109  1  0.07640000  0.62980000  0.61250000  1
  C  C110  1  0.35088000  0.19352000  0.07110000  1
  C  C111  1  0.19352000  0.35088000  0.42890000  1
  C  C112  1  0.64912000  0.80648000  0.92890000  1
  C  C113  1  0.80648000  0.64912000  0.57110000  1
  C  C114  1  0.25156000  0.18644000  0.09820000  1
  C  C115  1  0.18644000  0.25156000  0.40180000  1
  C  C116  1  0.74844000  0.81356000  0.90180000  1
  C  C117  1  0.81356000  0.74844000  0.59820000  1
  C  C118  1  0.56602000  0.88518000  0.12170000  1
  C  C119  1  0.88518000  0.56602000  0.37830000  1
  C  C120  1  0.43398000  0.11482000  0.87830000  1
  C  C121  1  0.11482000  0.43398000  0.62170000  1
  C  C122  1  0.93170000  0.04030000  0.09970000  1
  C  C123  1  0.04030000  0.93170000  0.40030000  1
  C  C124  1  0.06830000  0.95970000  0.90030000  1
  C  C125  1  0.95970000  0.06830000  0.59970000  1
  C  C126  1  0.82330000  0.31230000  0.14630000  1
  C  C127  1  0.31230000  0.82330000  0.35370000  1
  C  C128  1  0.17670000  0.68770000  0.85370000  1
  C  C129  1  0.68770000  0.17670000  0.64630000  1
  C  C130  1  0.83080000  0.04080000  0.07170000  1
  C  C131  1  0.04080000  0.83080000  0.42830000  1
  C  C132  1  0.16920000  0.95920000  0.92830000  1
  C  C133  1  0.95920000  0.16920000  0.57170000  1
  C  C134  1  0.35770000  0.81490000  0.10440000  1
  C  C135  1  0.81490000  0.35770000  0.39560000  1
  C  C136  1  0.64230000  0.18510000  0.89560000  1
  C  C137  1  0.18510000  0.64230000  0.60440000  1
  C  C138  1  0.62660000  0.34360000  0.15880000  1
  C  C139  1  0.34360000  0.62660000  0.34120000  1
  C  C140  1  0.37340000  0.65640000  0.84120000  1
  C  C141  1  0.65640000  0.37340000  0.65880000  1
  C  C142  1  0.83540000  0.41940000  0.15770000  1
  C  C143  1  0.41940000  0.83540000  0.34230000  1
  C  C144  1  0.16460000  0.58060000  0.84230000  1
  C  C145  1  0.58060000  0.16460000  0.65770000  1
  C  C146  1  0.45780000  0.79580000  0.11020000  1
  C  C147  1  0.79580000  0.45780000  0.38980000  1
  C  C148  1  0.54220000  0.20420000  0.88980000  1
  C  C149  1  0.20420000  0.54220000  0.61020000  1
  C  C150  1  0.73500000  0.43440000  0.16490000  1
  C  C151  1  0.43440000  0.73500000  0.33510000  1
  C  C152  1  0.26500000  0.56560000  0.83510000  1
  C  C153  1  0.56560000  0.26500000  0.66490000  1
  C  C154  1  0.50760000  0.84680000  0.58700000  1
  C  C155  1  0.84680000  0.50760000  0.91300000  1
  C  C156  1  0.49240000  0.15320000  0.41300000  1
  C  C157  1  0.15320000  0.49240000  0.08700000  1
  N  N158  1  0.79713000  0.08147000  0.13520000  1
  N  N159  1  0.08147000  0.79713000  0.36480000  1
  N  N160  1  0.20287000  0.91853000  0.86480000  1
  N  N161  1  0.91853000  0.20287000  0.63520000  1
  N  N162  1  0.96265000  0.08035000  0.17830000  1
  N  N163  1  0.08035000  0.96265000  0.32170000  1
  N  N164  1  0.03735000  0.91965000  0.82170000  1
  N  N165  1  0.91965000  0.03735000  0.67830000  1
  N  N166  1  0.23633000  0.14067000  0.17910000  1
  N  N167  1  0.14067000  0.23633000  0.32090000  1
  N  N168  1  0.76367000  0.85933000  0.82090000  1
  N  N169  1  0.85933000  0.76367000  0.67910000  1
  N  N170  1  0.39793000  0.15067000  0.13690000  1
  N  N171  1  0.15067000  0.39793000  0.36310000  1
  N  N172  1  0.60207000  0.84933000  0.86310000  1
  N  N173  1  0.84933000  0.60207000  0.63690000  1
  Cl  Cl174  1  0.75804000  0.00356000  0.40281000  1
  Cl  Cl175  1  0.00356000  0.75804000  0.09719000  1
  Cl  Cl176  1  0.24196000  0.99644000  0.59719000  1
  Cl  Cl177  1  0.99644000  0.24196000  0.90281000  1
  O  O178  1  0.88000000  0.07920000  0.39320000  1
  O  O179  1  0.07920000  0.88000000  0.10680000  1
  O  O180  1  0.12000000  0.92080000  0.60680000  1
  O  O181  1  0.92080000  0.12000000  0.89320000  1
  O  O182  1  0.74260000  0.89840000  0.44470000  1
  O  O183  1  0.89840000  0.74260000  0.05530000  1
  O  O184  1  0.25740000  0.10160000  0.55530000  1
  O  O185  1  0.10160000  0.25740000  0.94470000  1
  O  O186  1  0.62410000  0.88110000  0.60660000  1
  O  O187  1  0.88110000  0.62410000  0.89340000  1
  O  O188  1  0.37590000  0.11890000  0.39340000  1
  O  O189  1  0.11890000  0.37590000  0.10660000  1
  O  O190  1  0.69810000  0.98050000  0.32490000  1
  O  O191  1  0.98050000  0.69810000  0.17510000  1
  O  O192  1  0.30190000  0.01950000  0.67510000  1
  O  O193  1  0.01950000  0.30190000  0.82490000  1
  O  O194  1  0.71130000  0.05570000  0.45380000  1
  O  O195  1  0.05570000  0.71130000  0.04620000  1
  O  O196  1  0.28870000  0.94430000  0.54620000  1
  O  O197  1  0.94430000  0.28870000  0.95380000  1
