# generated using pymatgen
data_ZnH44C52N8(O4F3)2
_symmetry_space_group_name_H-M   'P 1'
_cell_length_a   13.60680000
_cell_length_b   18.00540000
_cell_length_c   23.24871108
_cell_angle_alpha   90.00000000
_cell_angle_beta   119.32024642
_cell_angle_gamma   90.00000000
_symmetry_Int_Tables_number   1
_chemical_formula_structural   ZnH44C52N8(O4F3)2
_chemical_formula_sum   'Zn4 H176 C208 N32 O32 F24'
_cell_volume   4966.18030846
_cell_formula_units_Z   4
loop_
 _symmetry_equiv_pos_site_id
 _symmetry_equiv_pos_as_xyz
  1  'x, y, z'
loop_
 _atom_site_type_symbol
 _atom_site_label
 _atom_site_symmetry_multiplicity
 _atom_site_fract_x
 _atom_site_fract_y
 _atom_site_fract_z
 _atom_site_occupancy
  Zn  Zn0  1  0.76564000  0.23668000  0.25977000  1.0
  Zn  Zn1  1  0.23436000  0.73668000  0.24023000  1.0
  Zn  Zn2  1  0.23436000  0.76332000  0.74023000  1.0
  Zn  Zn3  1  0.76564000  0.26332000  0.75977000  1.0
  H  H4  1  0.58428000  0.13499000  0.14127000  1.0
  H  H5  1  0.41572000  0.63499000  0.35873000  1.0
  H  H6  1  0.41572000  0.86501000  0.85873000  1.0
  H  H7  1  0.58428000  0.36501000  0.64127000  1.0
  H  H8  1  0.82250000  0.05514000  0.10863000  1.0
  H  H9  1  0.17750000  0.55514000  0.39137000  1.0
  H  H10  1  0.17750000  0.94486000  0.89137000  1.0
  H  H11  1  0.82250000  0.44486000  0.60863000  1.0
  H  H12  1  0.90545000  0.14758000  0.19657000  1.0
  H  H13  1  0.09455000  0.64758000  0.30343000  1.0
  H  H14  1  0.09455000  0.85242000  0.80343000  1.0
  H  H15  1  0.90545000  0.35242000  0.69657000  1.0
  H  H16  1  0.62243000  0.16924000  0.01218000  1.0
  H  H17  1  0.37757000  0.66924000  0.48782000  1.0
  H  H18  1  0.37757000  0.83076000  0.98782000  1.0
  H  H19  1  0.62243000  0.33076000  0.51218000  1.0
  H  H20  1  0.53414000  0.21928000  0.90985000  1.0
  H  H21  1  0.46586000  0.71928000  0.59015000  1.0
  H  H22  1  0.46586000  0.78072000  0.09015000  1.0
  H  H23  1  0.53414000  0.28072000  0.40985000  1.0
  H  H24  1  0.39215000  0.15435000  0.82104000  1.0
  H  H25  1  0.60785000  0.65435000  0.67896000  1.0
  H  H26  1  0.60785000  0.84565000  0.17896000  1.0
  H  H27  1  0.39215000  0.34565000  0.32104000  1.0
  H  H28  1  0.33668000  0.04016000  0.83631000  1.0
  H  H29  1  0.66332000  0.54016000  0.66369000  1.0
  H  H30  1  0.66332000  0.95984000  0.16369000  1.0
  H  H31  1  0.33668000  0.45984000  0.33631000  1.0
  H  H32  1  0.02640000  0.22378000  0.38087000  1.0
  H  H33  1  0.97360000  0.72378000  0.11913000  1.0
  H  H34  1  0.97360000  0.77622000  0.61913000  1.0
  H  H35  1  0.02640000  0.27622000  0.88087000  1.0
  H  H36  1  0.80799000  0.06114000  0.31460000  1.0
  H  H37  1  0.19201000  0.56114000  0.18540000  1.0
  H  H38  1  0.19201000  0.93886000  0.68540000  1.0
  H  H39  1  0.80799000  0.43886000  0.81460000  1.0
  H  H40  1  0.98680000  0.00937000  0.39981000  1.0
  H  H41  1  0.01320000  0.50937000  0.10019000  1.0
  H  H42  1  0.01320000  0.99063000  0.60019000  1.0
  H  H43  1  0.98680000  0.49063000  0.89981000  1.0
  H  H44  1  0.15066000  0.11263000  0.34179000  1.0
  H  H45  1  0.84934000  0.61263000  0.15821000  1.0
  H  H46  1  0.84934000  0.88737000  0.65821000  1.0
  H  H47  1  0.15066000  0.38737000  0.84179000  1.0
  H  H48  1  0.29079000  0.12624000  0.31613000  1.0
  H  H49  1  0.70921000  0.62624000  0.18387000  1.0
  H  H50  1  0.70921000  0.87376000  0.68387000  1.0
  H  H51  1  0.29079000  0.37376000  0.81613000  1.0
  H  H52  1  0.47890000  0.13535000  0.39971000  1.0
  H  H53  1  0.52110000  0.63535000  0.10029000  1.0
  H  H54  1  0.52110000  0.86465000  0.60029000  1.0
  H  H55  1  0.47890000  0.36465000  0.89971000  1.0
  H  H56  1  0.52388000  0.13051000  0.50779000  1.0
  H  H57  1  0.47612000  0.63051000  0.99221000  1.0
  H  H58  1  0.47612000  0.86949000  0.49221000  1.0
  H  H59  1  0.52388000  0.36949000  0.00779000  1.0
  H  H60  1  0.40141000  0.11436000  0.67778000  1.0
  H  H61  1  0.59859000  0.61436000  0.82222000  1.0
  H  H62  1  0.59859000  0.88564000  0.32222000  1.0
  H  H63  1  0.40141000  0.38564000  0.17778000  1.0
  H  H64  1  0.26049000  0.11773000  0.70282000  1.0
  H  H65  1  0.73951000  0.61773000  0.79718000  1.0
  H  H66  1  0.73951000  0.88227000  0.29718000  1.0
  H  H67  1  0.26049000  0.38227000  0.20282000  1.0
  H  H68  1  0.07086000  0.12142000  0.61932000  1.0
  H  H69  1  0.92914000  0.62142000  0.88068000  1.0
  H  H70  1  0.92914000  0.87858000  0.38068000  1.0
  H  H71  1  0.07086000  0.37858000  0.11932000  1.0
  H  H72  1  0.02621000  0.11453000  0.51153000  1.0
  H  H73  1  0.97379000  0.61453000  0.98847000  1.0
  H  H74  1  0.97379000  0.88547000  0.48847000  1.0
  H  H75  1  0.02621000  0.38547000  0.01153000  1.0
  H  H76  1  0.50824000  0.23753000  0.63443000  1.0
  H  H77  1  0.49176000  0.73753000  0.86557000  1.0
  H  H78  1  0.49176000  0.76247000  0.36557000  1.0
  H  H79  1  0.50824000  0.26247000  0.13443000  1.0
  H  H80  1  0.74723000  0.08791000  0.70987000  1.0
  H  H81  1  0.25277000  0.58791000  0.79013000  1.0
  H  H82  1  0.25277000  0.91209000  0.29013000  1.0
  H  H83  1  0.74723000  0.41209000  0.20987000  1.0
  H  H84  1  0.57814000  0.02568000  0.62550000  1.0
  H  H85  1  0.42186000  0.52568000  0.87450000  1.0
  H  H86  1  0.42186000  0.97432000  0.37450000  1.0
  H  H87  1  0.57814000  0.47432000  0.12550000  1.0
  H  H88  1  0.93885000  0.34771000  0.37450000  1.0
  H  H89  1  0.06115000  0.84771000  0.12550000  1.0
  H  H90  1  0.06115000  0.65229000  0.62550000  1.0
  H  H91  1  0.93885000  0.15229000  0.87450000  1.0
  H  H92  1  0.62103000  0.31634000  0.32362000  1.0
  H  H93  1  0.37897000  0.81634000  0.17638000  1.0
  H  H94  1  0.37897000  0.68366000  0.67638000  1.0
  H  H95  1  0.62103000  0.18366000  0.82362000  1.0
  H  H96  1  0.69228000  0.41500000  0.40610000  1.0
  H  H97  1  0.30772000  0.91500000  0.09390000  1.0
  H  H98  1  0.30772000  0.58500000  0.59390000  1.0
  H  H99  1  0.69228000  0.08500000  0.90610000  1.0
  H  H100  1  0.90215000  0.33014000  0.51479000  1.0
  H  H101  1  0.09785000  0.83014000  0.98521000  1.0
  H  H102  1  0.09785000  0.66986000  0.48521000  1.0
  H  H103  1  0.90215000  0.16986000  0.01479000  1.0
  H  H104  1  0.99508000  0.30169000  0.62412000  1.0
  H  H105  1  0.00492000  0.80169000  0.87588000  1.0
  H  H106  1  0.00492000  0.69831000  0.37588000  1.0
  H  H107  1  0.99508000  0.19831000  0.12412000  1.0
  H  H108  1  0.12236000  0.38703000  0.70144000  1.0
  H  H109  1  0.87764000  0.88703000  0.79856000  1.0
  H  H110  1  0.87764000  0.61297000  0.29856000  1.0
  H  H111  1  0.12236000  0.11297000  0.20144000  1.0
  H  H112  1  0.15797000  0.49618000  0.66800000  1.0
  H  H113  1  0.84203000  0.99618000  0.83200000  1.0
  H  H114  1  0.84203000  0.50382000  0.33200000  1.0
  H  H115  1  0.15797000  0.00382000  0.16800000  1.0
  H  H116  1  0.74446000  0.30470000  0.08732000  1.0
  H  H117  1  0.25554000  0.80470000  0.41268000  1.0
  H  H118  1  0.25554000  0.69530000  0.91268000  1.0
  H  H119  1  0.74446000  0.19530000  0.58732000  1.0
  H  H120  1  0.84953000  0.29774000  0.07676000  1.0
  H  H121  1  0.15047000  0.79774000  0.42324000  1.0
  H  H122  1  0.15047000  0.70226000  0.92324000  1.0
  H  H123  1  0.84953000  0.20226000  0.57676000  1.0
  H  H124  1  0.84609000  0.41525000  0.11629000  1.0
  H  H125  1  0.15391000  0.91525000  0.38371000  1.0
  H  H126  1  0.15391000  0.58475000  0.88371000  1.0
  H  H127  1  0.84609000  0.08475000  0.61629000  1.0
  H  H128  1  0.72425000  0.42878000  0.05715000  1.0
  H  H129  1  0.27575000  0.92878000  0.44285000  1.0
  H  H130  1  0.27575000  0.57122000  0.94285000  1.0
  H  H131  1  0.72425000  0.07122000  0.55715000  1.0
  H  H132  1  0.69643000  0.43752000  0.95010000  1.0
  H  H133  1  0.30357000  0.93752000  0.54990000  1.0
  H  H134  1  0.30357000  0.56248000  0.04990000  1.0
  H  H135  1  0.69643000  0.06248000  0.45010000  1.0
  H  H136  1  0.80002000  0.43262000  0.93797000  1.0
  H  H137  1  0.19998000  0.93262000  0.56203000  1.0
  H  H138  1  0.19998000  0.56738000  0.06203000  1.0
  H  H139  1  0.80002000  0.06738000  0.43797000  1.0
  H  H140  1  0.82437000  0.30841000  0.96822000  1.0
  H  H141  1  0.17563000  0.80841000  0.53178000  1.0
  H  H142  1  0.17563000  0.69159000  0.03178000  1.0
  H  H143  1  0.82437000  0.19159000  0.46822000  1.0
  H  H144  1  0.70198000  0.32127000  0.90925000  1.0
  H  H145  1  0.29802000  0.82127000  0.59075000  1.0
  H  H146  1  0.29802000  0.67873000  0.09075000  1.0
  H  H147  1  0.70198000  0.17873000  0.40925000  1.0
  H  H148  1  0.29843000  0.26885000  0.61627000  1.0
  H  H149  1  0.70157000  0.76885000  0.88373000  1.0
  H  H150  1  0.70157000  0.73115000  0.38373000  1.0
  H  H151  1  0.29843000  0.23115000  0.11627000  1.0
  H  H152  1  0.24083000  0.34664000  0.60861000  1.0
  H  H153  1  0.75917000  0.84664000  0.89139000  1.0
  H  H154  1  0.75917000  0.65336000  0.39139000  1.0
  H  H155  1  0.24083000  0.15336000  0.10861000  1.0
  H  H156  1  0.12660000  0.27071000  0.51881000  1.0
  H  H157  1  0.87340000  0.77071000  0.98119000  1.0
  H  H158  1  0.87340000  0.72929000  0.48119000  1.0
  H  H159  1  0.12660000  0.22929000  0.01881000  1.0
  H  H160  1  0.22482000  0.26175000  0.50234000  1.0
  H  H161  1  0.77518000  0.76175000  0.99766000  1.0
  H  H162  1  0.77518000  0.73825000  0.49766000  1.0
  H  H163  1  0.22482000  0.23825000  0.00234000  1.0
  H  H164  1  0.28446000  0.36797000  0.46672000  1.0
  H  H165  1  0.71554000  0.86797000  0.03328000  1.0
  H  H166  1  0.71554000  0.63203000  0.53328000  1.0
  H  H167  1  0.28446000  0.13203000  0.96672000  1.0
  H  H168  1  0.22084000  0.44320000  0.45968000  1.0
  H  H169  1  0.77916000  0.94320000  0.04032000  1.0
  H  H170  1  0.77916000  0.55680000  0.54032000  1.0
  H  H171  1  0.22084000  0.05680000  0.95968000  1.0
  H  H172  1  0.28990000  0.44419000  0.57535000  1.0
  H  H173  1  0.71010000  0.94419000  0.92465000  1.0
  H  H174  1  0.71010000  0.55581000  0.42465000  1.0
  H  H175  1  0.28990000  0.05581000  0.07535000  1.0
  H  H176  1  0.39058000  0.44462000  0.56023000  1.0
  H  H177  1  0.60942000  0.94462000  0.93977000  1.0
  H  H178  1  0.60942000  0.55538000  0.43977000  1.0
  H  H179  1  0.39058000  0.05538000  0.06023000  1.0
  C  C180  1  0.65400000  0.12690000  0.14410000  1.0
  C  C181  1  0.34600000  0.62690000  0.35590000  1.0
  C  C182  1  0.34600000  0.87310000  0.85590000  1.0
  C  C183  1  0.65400000  0.37310000  0.64410000  1.0
  C  C184  1  0.78460000  0.08260000  0.12560000  1.0
  C  C185  1  0.21540000  0.58260000  0.37440000  1.0
  C  C186  1  0.21540000  0.91740000  0.87440000  1.0
  C  C187  1  0.78460000  0.41740000  0.62560000  1.0
  C  C188  1  0.83010000  0.13340000  0.17440000  1.0
  C  C189  1  0.16990000  0.63340000  0.32560000  1.0
  C  C190  1  0.16990000  0.86660000  0.82560000  1.0
  C  C191  1  0.83010000  0.36660000  0.67440000  1.0
  C  C192  1  0.58530000  0.03780000  0.05190000  1.0
  C  C193  1  0.41470000  0.53780000  0.44810000  1.0
  C  C194  1  0.41470000  0.96220000  0.94810000  1.0
  C  C195  1  0.58530000  0.46220000  0.55190000  1.0
  C  C196  1  0.53430000  0.07120000  0.98960000  1.0
  C  C197  1  0.46570000  0.57120000  0.51040000  1.0
  C  C198  1  0.46570000  0.92880000  0.01040000  1.0
  C  C199  1  0.53430000  0.42880000  0.48960000  1.0
  C  C200  1  0.56540000  0.14280000  0.97760000  1.0
  C  C201  1  0.43460000  0.64280000  0.52240000  1.0
  C  C202  1  0.43460000  0.85720000  0.02240000  1.0
  C  C203  1  0.56540000  0.35720000  0.47760000  1.0
  C  C204  1  0.51310000  0.17240000  0.91670000  1.0
  C  C205  1  0.48690000  0.67240000  0.58330000  1.0
  C  C206  1  0.48690000  0.82760000  0.08330000  1.0
  C  C207  1  0.51310000  0.32760000  0.41670000  1.0
  C  C208  1  0.42660000  0.13330000  0.86290000  1.0
  C  C209  1  0.57340000  0.63330000  0.63710000  1.0
  C  C210  1  0.57340000  0.86670000  0.13710000  1.0
  C  C211  1  0.42660000  0.36670000  0.36290000  1.0
  C  C212  1  0.39380000  0.06510000  0.87210000  1.0
  C  C213  1  0.60620000  0.56510000  0.62790000  1.0
  C  C214  1  0.60620000  0.93490000  0.12790000  1.0
  C  C215  1  0.39380000  0.43490000  0.37210000  1.0
  C  C216  1  0.44500000  0.03140000  0.93520000  1.0
  C  C217  1  0.55500000  0.53140000  0.56480000  1.0
  C  C218  1  0.55500000  0.96860000  0.06480000  1.0
  C  C219  1  0.44500000  0.46860000  0.43520000  1.0
  C  C220  1  0.99350000  0.17710000  0.37490000  1.0
  C  C221  1  0.00650000  0.67710000  0.12510000  1.0
  C  C222  1  0.00650000  0.82290000  0.62510000  1.0
  C  C223  1  0.99350000  0.32290000  0.87490000  1.0
  C  C224  1  0.87450000  0.08770000  0.33880000  1.0
  C  C225  1  0.12550000  0.58770000  0.16120000  1.0
  C  C226  1  0.12550000  0.91230000  0.66120000  1.0
  C  C227  1  0.87450000  0.41230000  0.83880000  1.0
  C  C228  1  0.97310000  0.05860000  0.38600000  1.0
  C  C229  1  0.02690000  0.55860000  0.11400000  1.0
  C  C230  1  0.02690000  0.94140000  0.61400000  1.0
  C  C231  1  0.97310000  0.44140000  0.88600000  1.0
  C  C232  1  0.16430000  0.11370000  0.46030000  1.0
  C  C233  1  0.83570000  0.61370000  0.03970000  1.0
  C  C234  1  0.83570000  0.88630000  0.53970000  1.0
  C  C235  1  0.16430000  0.38630000  0.96030000  1.0
  C  C236  1  0.24760000  0.11600000  0.44220000  1.0
  C  C237  1  0.75240000  0.61600000  0.05780000  1.0
  C  C238  1  0.75240000  0.88400000  0.55780000  1.0
  C  C239  1  0.24760000  0.38400000  0.94220000  1.0
  C  C240  1  0.22480000  0.11710000  0.37560000  1.0
  C  C241  1  0.77520000  0.61710000  0.12440000  1.0
  C  C242  1  0.77520000  0.88290000  0.62440000  1.0
  C  C243  1  0.22480000  0.38290000  0.87560000  1.0
  C  C244  1  0.30830000  0.12460000  0.36010000  1.0
  C  C245  1  0.69170000  0.62460000  0.13990000  1.0
  C  C246  1  0.69170000  0.87540000  0.63990000  1.0
  C  C247  1  0.30830000  0.37540000  0.86010000  1.0
  C  C248  1  0.42210000  0.13000000  0.41070000  1.0
  C  C249  1  0.57790000  0.63000000  0.08930000  1.0
  C  C250  1  0.57790000  0.87000000  0.58930000  1.0
  C  C251  1  0.42210000  0.37000000  0.91070000  1.0
  C  C252  1  0.44870000  0.12730000  0.47510000  1.0
  C  C253  1  0.55130000  0.62730000  0.02490000  1.0
  C  C254  1  0.55130000  0.87270000  0.52490000  1.0
  C  C255  1  0.44870000  0.37270000  0.97510000  1.0
  C  C256  1  0.36410000  0.11980000  0.49350000  1.0
  C  C257  1  0.63590000  0.61980000  0.00650000  1.0
  C  C258  1  0.63590000  0.88020000  0.50650000  1.0
  C  C259  1  0.36410000  0.38020000  0.99350000  1.0
  C  C260  1  0.38720000  0.11930000  0.55920000  1.0
  C  C261  1  0.61280000  0.61930000  0.94080000  1.0
  C  C262  1  0.61280000  0.88070000  0.44080000  1.0
  C  C263  1  0.38720000  0.38070000  0.05920000  1.0
  C  C264  1  0.30350000  0.11510000  0.57700000  1.0
  C  C265  1  0.69650000  0.61510000  0.92300000  1.0
  C  C266  1  0.69650000  0.88490000  0.42300000  1.0
  C  C267  1  0.30350000  0.38490000  0.07700000  1.0
  C  C268  1  0.32700000  0.11540000  0.64390000  1.0
  C  C269  1  0.67300000  0.61540000  0.85610000  1.0
  C  C270  1  0.67300000  0.88460000  0.35610000  1.0
  C  C271  1  0.32700000  0.38460000  0.14390000  1.0
  C  C272  1  0.24300000  0.11730000  0.65880000  1.0
  C  C273  1  0.75700000  0.61730000  0.84120000  1.0
  C  C274  1  0.75700000  0.88270000  0.34120000  1.0
  C  C275  1  0.24300000  0.38270000  0.15880000  1.0
  C  C276  1  0.12780000  0.11850000  0.60820000  1.0
  C  C277  1  0.87220000  0.61850000  0.89180000  1.0
  C  C278  1  0.87220000  0.88150000  0.39180000  1.0
  C  C279  1  0.12780000  0.38150000  0.10820000  1.0
  C  C280  1  0.10160000  0.11540000  0.54420000  1.0
  C  C281  1  0.89840000  0.61540000  0.95580000  1.0
  C  C282  1  0.89840000  0.88460000  0.45580000  1.0
  C  C283  1  0.10160000  0.38460000  0.04420000  1.0
  C  C284  1  0.18710000  0.11340000  0.52570000  1.0
  C  C285  1  0.81290000  0.61340000  0.97430000  1.0
  C  C286  1  0.81290000  0.88660000  0.47430000  1.0
  C  C287  1  0.18710000  0.38660000  0.02570000  1.0
  C  C288  1  0.54720000  0.19290000  0.64270000  1.0
  C  C289  1  0.45280000  0.69290000  0.85730000  1.0
  C  C290  1  0.45280000  0.80710000  0.35730000  1.0
  C  C291  1  0.54720000  0.30710000  0.14270000  1.0
  C  C292  1  0.67750000  0.11030000  0.68390000  1.0
  C  C293  1  0.32250000  0.61030000  0.81610000  1.0
  C  C294  1  0.32250000  0.88970000  0.31610000  1.0
  C  C295  1  0.67750000  0.38970000  0.18390000  1.0
  C  C296  1  0.58470000  0.07560000  0.63720000  1.0
  C  C297  1  0.41530000  0.57560000  0.86280000  1.0
  C  C298  1  0.41530000  0.92440000  0.36280000  1.0
  C  C299  1  0.58470000  0.42440000  0.13720000  1.0
  C  C300  1  0.86870000  0.35190000  0.37190000  1.0
  C  C301  1  0.13130000  0.85190000  0.12810000  1.0
  C  C302  1  0.13130000  0.64810000  0.62810000  1.0
  C  C303  1  0.86870000  0.14810000  0.87190000  1.0
  C  C304  1  0.69410000  0.33510000  0.34420000  1.0
  C  C305  1  0.30590000  0.83510000  0.15580000  1.0
  C  C306  1  0.30590000  0.66490000  0.65580000  1.0
  C  C307  1  0.69410000  0.16490000  0.84420000  1.0
  C  C308  1  0.73290000  0.38950000  0.38980000  1.0
  C  C309  1  0.26710000  0.88950000  0.11020000  1.0
  C  C310  1  0.26710000  0.61050000  0.61020000  1.0
  C  C311  1  0.73290000  0.11050000  0.88980000  1.0
  C  C312  1  0.94520000  0.51700000  0.43160000  1.0
  C  C313  1  0.05480000  0.01700000  0.06840000  1.0
  C  C314  1  0.05480000  0.48300000  0.56840000  1.0
  C  C315  1  0.94520000  0.98300000  0.93160000  1.0
  C  C316  1  0.92280000  0.45130000  0.45490000  1.0
  C  C317  1  0.07720000  0.95130000  0.04510000  1.0
  C  C318  1  0.07720000  0.54870000  0.54510000  1.0
  C  C319  1  0.92280000  0.04870000  0.95490000  1.0
  C  C320  1  0.97380000  0.43240000  0.52120000  1.0
  C  C321  1  0.02620000  0.93240000  0.97880000  1.0
  C  C322  1  0.02620000  0.56760000  0.47880000  1.0
  C  C323  1  0.97380000  0.06760000  0.02120000  1.0
  C  C324  1  0.95360000  0.36380000  0.54470000  1.0
  C  C325  1  0.04640000  0.86380000  0.95530000  1.0
  C  C326  1  0.04640000  0.63620000  0.45530000  1.0
  C  C327  1  0.95360000  0.13620000  0.04470000  1.0
  C  C328  1  0.00840000  0.34690000  0.60990000  1.0
  C  C329  1  0.99160000  0.84690000  0.89010000  1.0
  C  C330  1  0.99160000  0.65310000  0.39010000  1.0
  C  C331  1  0.00840000  0.15310000  0.10990000  1.0
  C  C332  1  0.08620000  0.39850000  0.65670000  1.0
  C  C333  1  0.91380000  0.89850000  0.84330000  1.0
  C  C334  1  0.91380000  0.60150000  0.34330000  1.0
  C  C335  1  0.08620000  0.10150000  0.15670000  1.0
  C  C336  1  0.10750000  0.46320000  0.63670000  1.0
  C  C337  1  0.89250000  0.96320000  0.86330000  1.0
  C  C338  1  0.89250000  0.53680000  0.36330000  1.0
  C  C339  1  0.10750000  0.03680000  0.13670000  1.0
  C  C340  1  0.98490000  0.30620000  0.25100000  1.0
  C  C341  1  0.01510000  0.80620000  0.24900000  1.0
  C  C342  1  0.01510000  0.69380000  0.74900000  1.0
  C  C343  1  0.98490000  0.19380000  0.75100000  1.0
  C  C344  1  0.04710000  0.37690000  0.27130000  1.0
  C  C345  1  0.95290000  0.87690000  0.22870000  1.0
  C  C346  1  0.95290000  0.62310000  0.72870000  1.0
  C  C347  1  0.04710000  0.12310000  0.77130000  1.0
  C  C348  1  0.54240000  0.16940000  0.26300000  1.0
  C  C349  1  0.45760000  0.66940000  0.23700000  1.0
  C  C350  1  0.45760000  0.83060000  0.73700000  1.0
  C  C351  1  0.54240000  0.33060000  0.76300000  1.0
  C  C352  1  0.49980000  0.09070000  0.25900000  1.0
  C  C353  1  0.50020000  0.59070000  0.24100000  1.0
  C  C354  1  0.50020000  0.90930000  0.74100000  1.0
  C  C355  1  0.49980000  0.40930000  0.75900000  1.0
  C  C356  1  0.77750000  0.32240000  0.06120000  1.0
  C  C357  1  0.22250000  0.82240000  0.43880000  1.0
  C  C358  1  0.22250000  0.67760000  0.93880000  1.0
  C  C359  1  0.77750000  0.17760000  0.56120000  1.0
  C  C360  1  0.79560000  0.40430000  0.07010000  1.0
  C  C361  1  0.20440000  0.90430000  0.42990000  1.0
  C  C362  1  0.20440000  0.59570000  0.92990000  1.0
  C  C363  1  0.79560000  0.09570000  0.57010000  1.0
  C  C364  1  0.76880000  0.41380000  0.96470000  1.0
  C  C365  1  0.23120000  0.91380000  0.53530000  1.0
  C  C366  1  0.23120000  0.58620000  0.03530000  1.0
  C  C367  1  0.76880000  0.08620000  0.46470000  1.0
  C  C368  1  0.75270000  0.33230000  0.95540000  1.0
  C  C369  1  0.24730000  0.83230000  0.54460000  1.0
  C  C370  1  0.24730000  0.66770000  0.04460000  1.0
  C  C371  1  0.75270000  0.16770000  0.45540000  1.0
  C  C372  1  0.27490000  0.31400000  0.59010000  1.0
  C  C373  1  0.72510000  0.81400000  0.90990000  1.0
  C  C374  1  0.72510000  0.68600000  0.40990000  1.0
  C  C375  1  0.27490000  0.18600000  0.09010000  1.0
  C  C376  1  0.19070000  0.29560000  0.51990000  1.0
  C  C377  1  0.80930000  0.79560000  0.98010000  1.0
  C  C378  1  0.80930000  0.70440000  0.48010000  1.0
  C  C379  1  0.19070000  0.20440000  0.01990000  1.0
  C  C380  1  0.24670000  0.39760000  0.48490000  1.0
  C  C381  1  0.75330000  0.89760000  0.01510000  1.0
  C  C382  1  0.75330000  0.60240000  0.51510000  1.0
  C  C383  1  0.24670000  0.10240000  0.98490000  1.0
  C  C384  1  0.32810000  0.41540000  0.55690000  1.0
  C  C385  1  0.67190000  0.91540000  0.94310000  1.0
  C  C386  1  0.67190000  0.58460000  0.44310000  1.0
  C  C387  1  0.32810000  0.08460000  0.05690000  1.0
  N  N388  1  0.74752000  0.16080000  0.18602000  1.0
  N  N389  1  0.25248000  0.66080000  0.31398000  1.0
  N  N390  1  0.25248000  0.83920000  0.81398000  1.0
  N  N391  1  0.74752000  0.33920000  0.68602000  1.0
  N  N392  1  0.88773000  0.16230000  0.33213000  1.0
  N  N393  1  0.11227000  0.66230000  0.16787000  1.0
  N  N394  1  0.11227000  0.83770000  0.66787000  1.0
  N  N395  1  0.88773000  0.33770000  0.83213000  1.0
  N  N396  1  0.77882000  0.31180000  0.33262000  1.0
  N  N397  1  0.22118000  0.81180000  0.16738000  1.0
  N  N398  1  0.22118000  0.68820000  0.66738000  1.0
  N  N399  1  0.77882000  0.18820000  0.83262000  1.0
  N  N400  1  0.65365000  0.18380000  0.68745000  1.0
  N  N401  1  0.34635000  0.68380000  0.81255000  1.0
  N  N402  1  0.34635000  0.81620000  0.31255000  1.0
  N  N403  1  0.65365000  0.31620000  0.18745000  1.0
  N  N404  1  0.67160000  0.07920000  0.10590000  1.0
  N  N405  1  0.32840000  0.57920000  0.39410000  1.0
  N  N406  1  0.32840000  0.92080000  0.89410000  1.0
  N  N407  1  0.67160000  0.42080000  0.60590000  1.0
  N  N408  1  0.04810000  0.11580000  0.40900000  1.0
  N  N409  1  0.95190000  0.61580000  0.09100000  1.0
  N  N410  1  0.95190000  0.88420000  0.59100000  1.0
  N  N411  1  0.04810000  0.38420000  0.90900000  1.0
  N  N412  1  0.84370000  0.39970000  0.40750000  1.0
  N  N413  1  0.15630000  0.89970000  0.09250000  1.0
  N  N414  1  0.15630000  0.60030000  0.59250000  1.0
  N  N415  1  0.84370000  0.10030000  0.90750000  1.0
  N  N416  1  0.50200000  0.12870000  0.61040000  1.0
  N  N417  1  0.49800000  0.62870000  0.88960000  1.0
  N  N418  1  0.49800000  0.87130000  0.38960000  1.0
  N  N419  1  0.50200000  0.37130000  0.11040000  1.0
  O  O420  1  0.62952000  0.17440000  0.25972000  1.0
  O  O421  1  0.37048000  0.67440000  0.24028000  1.0
  O  O422  1  0.37048000  0.82560000  0.74028000  1.0
  O  O423  1  0.62952000  0.32560000  0.75972000  1.0
  O  O424  1  0.90704000  0.29890000  0.26254000  1.0
  O  O425  1  0.09296000  0.79890000  0.23746000  1.0
  O  O426  1  0.09296000  0.70110000  0.73746000  1.0
  O  O427  1  0.90704000  0.20110000  0.76254000  1.0
  O  O428  1  0.48490000  0.21970000  0.26760000  1.0
  O  O429  1  0.51510000  0.71970000  0.23240000  1.0
  O  O430  1  0.51510000  0.78030000  0.73240000  1.0
  O  O431  1  0.48490000  0.28030000  0.76760000  1.0
  O  O432  1  0.84210000  0.43190000  0.03170000  1.0
  O  O433  1  0.15790000  0.93190000  0.46830000  1.0
  O  O434  1  0.15790000  0.56810000  0.96830000  1.0
  O  O435  1  0.84210000  0.06810000  0.53170000  1.0
  O  O436  1  0.70640000  0.30440000  0.99480000  1.0
  O  O437  1  0.29360000  0.80440000  0.50520000  1.0
  O  O438  1  0.29360000  0.69560000  0.00520000  1.0
  O  O439  1  0.70640000  0.19560000  0.49480000  1.0
  O  O440  1  0.15390000  0.35800000  0.48080000  1.0
  O  O441  1  0.84610000  0.85800000  0.01920000  1.0
  O  O442  1  0.84610000  0.64200000  0.51920000  1.0
  O  O443  1  0.15390000  0.14200000  0.98080000  1.0
  O  O444  1  0.36840000  0.34870000  0.59210000  1.0
  O  O445  1  0.63160000  0.84870000  0.90790000  1.0
  O  O446  1  0.63160000  0.65130000  0.40790000  1.0
  O  O447  1  0.36840000  0.15130000  0.09210000  1.0
  O  O448  1  0.98140000  0.28970000  0.19630000  0.341
  O  O449  1  0.01860000  0.78970000  0.30370000  0.341
  O  O450  1  0.01860000  0.71030000  0.80370000  0.341
  O  O451  1  0.98140000  0.21030000  0.69630000  0.341
  O  O452  1  0.03210000  0.24930000  0.23960000  0.659
  O  O453  1  0.96790000  0.74930000  0.26040000  0.659
  O  O454  1  0.96790000  0.75070000  0.76040000  0.659
  O  O455  1  0.03210000  0.25070000  0.73960000  0.659
  F  F456  1  0.97500000  0.43860000  0.25680000  0.659
  F  F457  1  0.02500000  0.93860000  0.24320000  0.659
  F  F458  1  0.02500000  0.56140000  0.74320000  0.659
  F  F459  1  0.97500000  0.06140000  0.75680000  0.659
  F  F460  1  0.07840000  0.40080000  0.32800000  0.659
  F  F461  1  0.92160000  0.90080000  0.17200000  0.659
  F  F462  1  0.92160000  0.59920000  0.67200000  0.659
  F  F463  1  0.07840000  0.09920000  0.82800000  0.659
  F  F464  1  0.13710000  0.37620000  0.26850000  0.659
  F  F465  1  0.86290000  0.87620000  0.23150000  0.659
  F  F466  1  0.86290000  0.62380000  0.73150000  0.659
  F  F467  1  0.13710000  0.12380000  0.76850000  0.659
  F  F468  1  0.54800000  0.05970000  0.31820000  1.0
  F  F469  1  0.45200000  0.55970000  0.18180000  1.0
  F  F470  1  0.45200000  0.94030000  0.68180000  1.0
  F  F471  1  0.54800000  0.44030000  0.81820000  1.0
  F  F472  1  0.38960000  0.08610000  0.23730000  1.0
  F  F473  1  0.61040000  0.58610000  0.26270000  1.0
  F  F474  1  0.61040000  0.91390000  0.76270000  1.0
  F  F475  1  0.38960000  0.41390000  0.73730000  1.0
  F  F476  1  0.51890000  0.04630000  0.22090000  1.0
  F  F477  1  0.48110000  0.54630000  0.27910000  1.0
  F  F478  1  0.48110000  0.95370000  0.77910000  1.0
  F  F479  1  0.51890000  0.45370000  0.72090000  1.0
  F  F480  1  0.10350000  0.40660000  0.24350000  0.341
  F  F481  1  0.89650000  0.90660000  0.25650000  0.341
  F  F482  1  0.89650000  0.59340000  0.75650000  0.341
  F  F483  1  0.10350000  0.09340000  0.74350000  0.341
  F  F484  1  0.13510000  0.34800000  0.33510000  0.341
  F  F485  1  0.86490000  0.84800000  0.16490000  0.341
  F  F486  1  0.86490000  0.65200000  0.66490000  0.341
  F  F487  1  0.13510000  0.15200000  0.83510000  0.341
  F  F488  1  0.02320000  0.40250000  0.21520000  0.341
  F  F489  1  0.97680000  0.90250000  0.28480000  0.341
  F  F490  1  0.97680000  0.59750000  0.78480000  0.341
  F  F491  1  0.02320000  0.09750000  0.71520000  0.341
