# generated using pymatgen
data_CdH66C64S2(N2O3)4
_symmetry_space_group_name_H-M   'P 1'
_cell_length_a   10.64320000
_cell_length_b   13.38800000
_cell_length_c   23.81614989
_cell_angle_alpha   90.00000000
_cell_angle_beta   115.16209678
_cell_angle_gamma   90.00000000
_symmetry_Int_Tables_number   1
_chemical_formula_structural   CdH66C64S2(N2O3)4
_chemical_formula_sum   'Cd2 H132 C128 S4 N16 O24'
_cell_volume   3071.56801267
_cell_formula_units_Z   2
loop_
 _symmetry_equiv_pos_site_id
 _symmetry_equiv_pos_as_xyz
  1  'x, y, z'
loop_
 _atom_site_type_symbol
 _atom_site_label
 _atom_site_symmetry_multiplicity
 _atom_site_fract_x
 _atom_site_fract_y
 _atom_site_fract_z
 _atom_site_occupancy
  Cd  Cd0  1  0.00000000  0.00000000  0.50000000  1.0
  Cd  Cd1  1  0.00000000  0.50000000  0.00000000  1.0
  H  H2  1  0.00969000  0.10845000  0.63038000  1.0
  H  H3  1  0.99031000  0.60845000  0.86962000  1.0
  H  H4  1  0.99031000  0.89155000  0.36962000  1.0
  H  H5  1  0.00969000  0.39155000  0.13038000  1.0
  H  H6  1  0.30750000  0.13732000  0.57666000  1.0
  H  H7  1  0.69250000  0.63732000  0.92334000  1.0
  H  H8  1  0.69250000  0.86268000  0.42334000  1.0
  H  H9  1  0.30750000  0.36268000  0.07666000  1.0
  H  H10  1  0.37067000  0.23856000  0.67004000  1.0
  H  H11  1  0.62933000  0.73856000  0.82996000  1.0
  H  H12  1  0.62933000  0.76144000  0.32996000  1.0
  H  H13  1  0.37067000  0.26144000  0.17004000  1.0
  H  H14  1  0.07240000  0.35339000  0.62486000  1.0
  H  H15  1  0.92760000  0.85339000  0.87514000  1.0
  H  H16  1  0.92760000  0.64661000  0.37514000  1.0
  H  H17  1  0.07240000  0.14661000  0.12486000  1.0
  H  H18  1  0.99359000  0.51283000  0.61957000  1.0
  H  H19  1  0.00641000  0.01283000  0.88043000  1.0
  H  H20  1  0.00641000  0.48717000  0.38043000  1.0
  H  H21  1  0.99359000  0.98717000  0.11957000  1.0
  H  H22  1  0.00694000  0.59383000  0.70858000  1.0
  H  H23  1  0.99306000  0.09383000  0.79142000  1.0
  H  H24  1  0.99306000  0.40617000  0.29142000  1.0
  H  H25  1  0.00694000  0.90617000  0.20858000  1.0
  H  H26  1  0.09398000  0.51495000  0.80147000  1.0
  H  H27  1  0.90602000  0.01495000  0.69853000  1.0
  H  H28  1  0.90602000  0.48505000  0.19853000  1.0
  H  H29  1  0.09398000  0.98505000  0.30147000  1.0
  H  H30  1  0.29387000  0.20637000  0.92600000  1.0
  H  H31  1  0.70613000  0.70637000  0.57400000  1.0
  H  H32  1  0.70613000  0.79363000  0.07400000  1.0
  H  H33  1  0.29387000  0.29363000  0.42600000  1.0
  H  H34  1  0.37005000  0.04683000  0.93063000  1.0
  H  H35  1  0.62995000  0.54683000  0.56937000  1.0
  H  H36  1  0.62995000  0.95317000  0.06937000  1.0
  H  H37  1  0.37005000  0.45317000  0.43063000  1.0
  H  H38  1  0.36724000  0.96833000  0.84230000  1.0
  H  H39  1  0.63276000  0.46833000  0.65770000  1.0
  H  H40  1  0.63276000  0.03167000  0.15770000  1.0
  H  H41  1  0.36724000  0.53167000  0.34230000  1.0
  H  H42  1  0.28537000  0.04927000  0.75014000  1.0
  H  H43  1  0.71463000  0.54927000  0.74986000  1.0
  H  H44  1  0.71463000  0.95073000  0.24986000  1.0
  H  H45  1  0.28537000  0.45073000  0.25014000  1.0
  H  H46  1  0.00538000  0.36854000  0.87892000  1.0
  H  H47  1  0.99462000  0.86854000  0.62108000  1.0
  H  H48  1  0.99462000  0.63146000  0.12108000  1.0
  H  H49  1  0.00538000  0.13146000  0.37892000  1.0
  H  H50  1  0.40220000  0.42926000  0.92555000  1.0
  H  H51  1  0.59780000  0.92926000  0.57445000  1.0
  H  H52  1  0.59780000  0.57074000  0.07445000  1.0
  H  H53  1  0.40220000  0.07074000  0.42555000  1.0
  H  H54  1  0.33174000  0.50759000  0.00075000  1.0
  H  H55  1  0.66826000  0.00759000  0.49925000  1.0
  H  H56  1  0.66826000  0.49241000  0.99925000  1.0
  H  H57  1  0.33174000  0.99241000  0.50075000  1.0
  H  H58  1  0.57237000  0.11964000  0.27498000  1.0
  H  H59  1  0.42763000  0.61964000  0.22502000  1.0
  H  H60  1  0.42763000  0.88036000  0.72502000  1.0
  H  H61  1  0.57237000  0.38036000  0.77498000  1.0
  H  H62  1  0.35777000  0.99973000  0.23556000  1.0
  H  H63  1  0.64223000  0.49973000  0.26444000  1.0
  H  H64  1  0.64223000  0.00027000  0.76444000  1.0
  H  H65  1  0.35777000  0.50027000  0.73556000  1.0
  H  H66  1  0.51076000  0.96711000  0.27756000  1.0
  H  H67  1  0.48924000  0.46711000  0.22244000  1.0
  H  H68  1  0.48924000  0.03289000  0.72244000  1.0
  H  H69  1  0.51076000  0.53289000  0.77756000  1.0
  H  H70  1  0.43109000  0.03659000  0.30448000  1.0
  H  H71  1  0.56891000  0.53659000  0.19552000  1.0
  H  H72  1  0.56891000  0.96341000  0.69552000  1.0
  H  H73  1  0.43109000  0.46341000  0.80448000  1.0
  H  H74  1  0.65490000  0.50451000  0.35263000  0.5
  H  H75  1  0.34510000  0.00451000  0.14737000  0.5
  H  H76  1  0.34510000  0.49549000  0.64737000  0.5
  H  H77  1  0.65490000  0.99549000  0.85263000  0.5
  H  H78  1  0.65104000  0.33018000  0.33269000  0.5
  H  H79  1  0.34896000  0.83018000  0.16731000  0.5
  H  H80  1  0.34896000  0.66982000  0.66731000  0.5
  H  H81  1  0.65104000  0.16982000  0.83269000  0.5
  H  H82  1  0.73785000  0.26776000  0.50037000  0.5
  H  H83  1  0.26215000  0.76776000  0.99963000  0.5
  H  H84  1  0.26215000  0.73224000  0.49963000  0.5
  H  H85  1  0.73785000  0.23224000  0.00037000  0.5
  H  H86  1  0.73453000  0.44373000  0.52499000  0.5
  H  H87  1  0.26547000  0.94373000  0.97501000  0.5
  H  H88  1  0.26547000  0.55627000  0.47501000  0.5
  H  H89  1  0.73453000  0.05627000  0.02499000  0.5
  H  H90  1  0.64624000  0.63953000  0.41719000  0.5
  H  H91  1  0.35376000  0.13953000  0.08281000  0.5
  H  H92  1  0.35376000  0.36047000  0.58281000  0.5
  H  H93  1  0.64624000  0.86047000  0.91719000  0.5
  H  H94  1  0.61900000  0.59710000  0.47237000  0.5
  H  H95  1  0.38100000  0.09710000  0.02763000  0.5
  H  H96  1  0.38100000  0.40290000  0.52763000  0.5
  H  H97  1  0.61900000  0.90290000  0.97237000  0.5
  H  H98  1  0.77080000  0.62203000  0.48207000  0.5
  H  H99  1  0.22920000  0.12203000  0.01793000  0.5
  H  H100  1  0.22920000  0.37797000  0.51793000  0.5
  H  H101  1  0.77080000  0.87797000  0.98207000  0.5
  H  H102  1  0.57264000  0.37279000  0.38277000  0.5
  H  H103  1  0.42736000  0.87279000  0.11723000  0.5
  H  H104  1  0.42736000  0.62721000  0.61723000  0.5
  H  H105  1  0.57264000  0.12721000  0.88277000  0.5
  H  H106  1  0.63315000  0.53436000  0.41960000  0.5
  H  H107  1  0.36685000  0.03436000  0.08040000  0.5
  H  H108  1  0.36685000  0.46564000  0.58040000  0.5
  H  H109  1  0.63315000  0.96564000  0.91960000  0.5
  H  H110  1  0.02551000  0.44475000  0.52144000  0.5
  H  H111  1  0.97449000  0.94475000  0.97856000  0.5
  H  H112  1  0.97449000  0.55525000  0.47856000  0.5
  H  H113  1  0.02551000  0.05525000  0.02144000  0.5
  H  H114  1  0.96500000  0.28318000  0.48461000  0.5
  H  H115  1  0.03500000  0.78318000  0.01539000  0.5
  H  H116  1  0.03500000  0.71682000  0.51539000  0.5
  H  H117  1  0.96500000  0.21682000  0.98461000  0.5
  H  H118  1  0.84974000  0.63779000  0.52806000  0.5
  H  H119  1  0.15026000  0.13779000  0.97194000  0.5
  H  H120  1  0.15026000  0.36221000  0.47194000  0.5
  H  H121  1  0.84974000  0.86221000  0.02806000  0.5
  H  H122  1  0.96603000  0.63574000  0.50412000  0.5
  H  H123  1  0.03397000  0.13574000  0.99588000  0.5
  H  H124  1  0.03397000  0.36426000  0.49588000  0.5
  H  H125  1  0.96603000  0.86426000  0.00412000  0.5
  H  H126  1  0.81351000  0.66439000  0.45877000  0.5
  H  H127  1  0.18649000  0.16439000  0.04123000  0.5
  H  H128  1  0.18649000  0.33561000  0.54123000  0.5
  H  H129  1  0.81351000  0.83561000  0.95877000  0.5
  H  H130  1  0.55144000  0.22807000  0.01501000  0.5
  H  H131  1  0.44856000  0.72807000  0.48499000  0.5
  H  H132  1  0.44856000  0.77193000  0.98499000  0.5
  H  H133  1  0.55144000  0.27193000  0.51501000  0.5
  H  H134  1  0.56945000  0.32738000  0.05256000  0.5
  H  H135  1  0.43055000  0.82738000  0.44744000  0.5
  H  H136  1  0.43055000  0.67262000  0.94744000  0.5
  H  H137  1  0.56945000  0.17262000  0.55256000  0.5
  H  H138  1  0.77394000  0.28769000  0.04733000  0.5
  H  H139  1  0.22606000  0.78769000  0.45267000  0.5
  H  H140  1  0.22606000  0.71231000  0.95267000  0.5
  H  H141  1  0.77394000  0.21231000  0.54733000  0.5
  H  H142  1  0.77646000  0.18318000  0.07775000  0.5
  H  H143  1  0.22354000  0.68318000  0.42225000  0.5
  H  H144  1  0.22354000  0.81682000  0.92225000  0.5
  H  H145  1  0.77646000  0.31682000  0.57775000  0.5
  H  H146  1  0.80705000  0.17685000  0.18358000  0.5
  H  H147  1  0.19295000  0.67685000  0.31642000  0.5
  H  H148  1  0.19295000  0.82315000  0.81642000  0.5
  H  H149  1  0.80705000  0.32315000  0.68358000  0.5
  H  H150  1  0.82378000  0.27713000  0.22020000  0.5
  H  H151  1  0.17622000  0.77713000  0.27980000  0.5
  H  H152  1  0.17622000  0.72287000  0.77980000  0.5
  H  H153  1  0.82378000  0.22287000  0.72020000  0.5
  H  H154  1  0.58473000  0.31968000  0.15681000  0.5
  H  H155  1  0.41527000  0.81968000  0.34319000  0.5
  H  H156  1  0.41527000  0.68032000  0.84319000  0.5
  H  H157  1  0.58473000  0.18032000  0.65681000  0.5
  H  H158  1  0.58737000  0.21257000  0.18478000  0.5
  H  H159  1  0.41263000  0.71257000  0.31522000  0.5
  H  H160  1  0.41263000  0.78743000  0.81522000  0.5
  H  H161  1  0.58737000  0.28743000  0.68478000  0.5
  H  H162  1  0.54926000  0.29214000  0.06345000  0.5
  H  H163  1  0.45074000  0.79214000  0.43655000  0.5
  H  H164  1  0.45074000  0.70786000  0.93655000  0.5
  H  H165  1  0.54926000  0.20786000  0.56345000  0.5
  H  H166  1  0.59616000  0.36942000  0.11809000  0.5
  H  H167  1  0.40384000  0.86942000  0.38191000  0.5
  H  H168  1  0.40384000  0.63058000  0.88191000  0.5
  H  H169  1  0.59616000  0.13058000  0.61809000  0.5
  H  H170  1  0.78093000  0.33621000  0.09274000  0.5
  H  H171  1  0.21907000  0.83621000  0.40726000  0.5
  H  H172  1  0.21907000  0.66379000  0.90726000  0.5
  H  H173  1  0.78093000  0.16379000  0.59274000  0.5
  H  H174  1  0.77016000  0.22182000  0.10370000  0.5
  H  H175  1  0.22984000  0.72182000  0.39630000  0.5
  H  H176  1  0.22984000  0.77818000  0.89630000  0.5
  H  H177  1  0.77016000  0.27818000  0.60370000  0.5
  H  H178  1  0.82753000  0.16641000  0.20733000  0.5
  H  H179  1  0.17247000  0.66641000  0.29267000  0.5
  H  H180  1  0.17247000  0.83359000  0.79267000  0.5
  H  H181  1  0.82753000  0.33359000  0.70733000  0.5
  H  H182  1  0.88117000  0.24885000  0.25924000  0.5
  H  H183  1  0.11883000  0.74885000  0.24076000  0.5
  H  H184  1  0.11883000  0.75115000  0.74076000  0.5
  H  H185  1  0.88117000  0.25115000  0.75924000  0.5
  H  H186  1  0.65218000  0.21457000  0.23504000  0.5
  H  H187  1  0.34782000  0.71457000  0.26496000  0.5
  H  H188  1  0.34782000  0.78543000  0.76496000  0.5
  H  H189  1  0.65218000  0.28543000  0.73504000  0.5
  H  H190  1  0.66586000  0.32518000  0.21667000  0.5
  H  H191  1  0.33414000  0.82518000  0.28333000  0.5
  H  H192  1  0.33414000  0.67482000  0.78333000  0.5
  H  H193  1  0.66586000  0.17482000  0.71667000  0.5
  C  C194  1  0.09170000  0.12770000  0.62840000  1.0
  C  C195  1  0.90830000  0.62770000  0.87160000  1.0
  C  C196  1  0.90830000  0.87230000  0.37160000  1.0
  C  C197  1  0.09170000  0.37230000  0.12840000  1.0
  C  C198  1  0.25500000  0.14420000  0.59920000  1.0
  C  C199  1  0.74500000  0.64420000  0.90080000  1.0
  C  C200  1  0.74500000  0.85580000  0.40080000  1.0
  C  C201  1  0.25500000  0.35580000  0.09920000  1.0
  C  C202  1  0.29100000  0.20000000  0.65090000  1.0
  C  C203  1  0.70900000  0.70000000  0.84910000  1.0
  C  C204  1  0.70900000  0.80000000  0.34910000  1.0
  C  C205  1  0.29100000  0.30000000  0.15090000  1.0
  C  C206  1  0.18237000  0.23410000  0.72337000  1.0
  C  C207  1  0.81763000  0.73410000  0.77663000  1.0
  C  C208  1  0.81763000  0.76590000  0.27663000  1.0
  C  C209  1  0.18237000  0.26590000  0.22337000  1.0
  C  C210  1  0.13142000  0.33170000  0.71752000  1.0
  C  C211  1  0.86858000  0.83170000  0.78248000  1.0
  C  C212  1  0.86858000  0.66830000  0.28248000  1.0
  C  C213  1  0.13142000  0.16830000  0.21752000  1.0
  C  C214  1  0.07670000  0.38440000  0.66060000  1.0
  C  C215  1  0.92330000  0.88440000  0.83940000  1.0
  C  C216  1  0.92330000  0.61560000  0.33940000  1.0
  C  C217  1  0.07670000  0.11560000  0.16060000  1.0
  C  C218  1  0.03040000  0.47950000  0.65740000  1.0
  C  C219  1  0.96960000  0.97950000  0.84260000  1.0
  C  C220  1  0.96960000  0.52050000  0.34260000  1.0
  C  C221  1  0.03040000  0.02050000  0.15740000  1.0
  C  C222  1  0.03790000  0.52830000  0.71130000  1.0
  C  C223  1  0.96210000  0.02830000  0.78870000  1.0
  C  C224  1  0.96210000  0.47170000  0.28870000  1.0
  C  C225  1  0.03790000  0.97170000  0.21130000  1.0
  C  C226  1  0.08930000  0.48120000  0.76650000  1.0
  C  C227  1  0.91070000  0.98120000  0.73350000  1.0
  C  C228  1  0.91070000  0.51880000  0.23350000  1.0
  C  C229  1  0.08930000  0.01880000  0.26650000  1.0
  C  C230  1  0.13641000  0.38050000  0.77211000  1.0
  C  C231  1  0.86359000  0.88050000  0.72789000  1.0
  C  C232  1  0.86359000  0.61950000  0.22789000  1.0
  C  C233  1  0.13641000  0.11950000  0.27211000  1.0
  C  C234  1  0.19039000  0.32790000  0.82789000  1.0
  C  C235  1  0.80961000  0.82790000  0.67211000  1.0
  C  C236  1  0.80961000  0.67210000  0.17211000  1.0
  C  C237  1  0.19039000  0.17210000  0.32789000  1.0
  C  C238  1  0.23850000  0.23030000  0.83350000  1.0
  C  C239  1  0.76150000  0.73030000  0.66650000  1.0
  C  C240  1  0.76150000  0.76970000  0.16650000  1.0
  C  C241  1  0.23850000  0.26970000  0.33350000  1.0
  C  C242  1  0.29100000  0.17610000  0.89030000  1.0
  C  C243  1  0.70900000  0.67610000  0.60970000  1.0
  C  C244  1  0.70900000  0.82390000  0.10970000  1.0
  C  C245  1  0.29100000  0.32390000  0.39030000  1.0
  C  C246  1  0.33690000  0.08120000  0.89320000  1.0
  C  C247  1  0.66310000  0.58120000  0.60680000  1.0
  C  C248  1  0.66310000  0.91880000  0.10680000  1.0
  C  C249  1  0.33690000  0.41880000  0.39320000  1.0
  C  C250  1  0.33470000  0.03340000  0.83960000  1.0
  C  C251  1  0.66530000  0.53340000  0.66040000  1.0
  C  C252  1  0.66530000  0.96660000  0.16040000  1.0
  C  C253  1  0.33470000  0.46660000  0.33960000  1.0
  C  C254  1  0.28590000  0.08160000  0.78480000  1.0
  C  C255  1  0.71410000  0.58160000  0.71520000  1.0
  C  C256  1  0.71410000  0.91840000  0.21520000  1.0
  C  C257  1  0.28590000  0.41840000  0.28480000  1.0
  C  C258  1  0.23480000  0.18170000  0.77900000  1.0
  C  C259  1  0.76520000  0.68170000  0.72100000  1.0
  C  C260  1  0.76520000  0.81830000  0.22100000  1.0
  C  C261  1  0.23480000  0.31830000  0.27900000  1.0
  C  C262  1  0.09484000  0.39350000  0.90004000  1.0
  C  C263  1  0.90516000  0.89350000  0.59996000  1.0
  C  C264  1  0.90516000  0.60650000  0.09996000  1.0
  C  C265  1  0.09484000  0.10650000  0.40004000  1.0
  C  C266  1  0.31466000  0.42670000  0.92536000  1.0
  C  C267  1  0.68534000  0.92670000  0.57464000  1.0
  C  C268  1  0.68534000  0.57330000  0.07464000  1.0
  C  C269  1  0.31466000  0.07330000  0.42536000  1.0
  C  C270  1  0.27490000  0.46960000  0.96670000  1.0
  C  C271  1  0.72510000  0.96960000  0.53330000  1.0
  C  C272  1  0.72510000  0.53040000  0.03330000  1.0
  C  C273  1  0.27490000  0.03040000  0.46670000  1.0
  C  C274  1  0.69960000  0.48400000  0.43260000  1.0
  C  C275  1  0.30040000  0.98400000  0.06740000  1.0
  C  C276  1  0.30040000  0.51600000  0.56740000  1.0
  C  C277  1  0.69960000  0.01600000  0.93260000  1.0
  C  C278  1  0.76280000  0.31200000  0.43000000  1.0
  C  C279  1  0.23720000  0.81200000  0.07000000  1.0
  C  C280  1  0.23720000  0.68800000  0.57000000  1.0
  C  C281  1  0.76280000  0.18800000  0.93000000  1.0
  C  C282  1  0.44450000  0.02040000  0.26810000  1.0
  C  C283  1  0.55550000  0.52040000  0.23190000  1.0
  C  C284  1  0.55550000  0.97960000  0.73190000  1.0
  C  C285  1  0.44450000  0.47960000  0.76810000  1.0
  C  C286  1  0.67860000  0.45780000  0.38440000  0.5
  C  C287  1  0.32140000  0.95780000  0.11560000  0.5
  C  C288  1  0.32140000  0.54220000  0.61560000  0.5
  C  C289  1  0.67860000  0.04220000  0.88440000  0.5
  C  C290  1  0.68710000  0.36000000  0.37160000  0.5
  C  C291  1  0.31290000  0.86000000  0.12840000  0.5
  C  C292  1  0.31290000  0.64000000  0.62840000  0.5
  C  C293  1  0.68710000  0.14000000  0.87160000  0.5
  C  C294  1  0.74260000  0.32060000  0.47600000  0.5
  C  C295  1  0.25740000  0.82060000  0.02400000  0.5
  C  C296  1  0.25740000  0.67940000  0.52400000  0.5
  C  C297  1  0.74260000  0.17940000  0.97600000  0.5
  C  C298  1  0.72780000  0.41970000  0.48720000  0.5
  C  C299  1  0.27220000  0.91970000  0.01280000  0.5
  C  C300  1  0.27220000  0.58030000  0.51280000  0.5
  C  C301  1  0.72780000  0.08030000  0.98720000  0.5
  C  C302  1  0.68220000  0.59730000  0.45320000  0.5
  C  C303  1  0.31780000  0.09730000  0.04680000  0.5
  C  C304  1  0.31780000  0.40270000  0.54680000  0.5
  C  C305  1  0.68220000  0.90270000  0.95320000  0.5
  C  C306  1  0.66340000  0.38720000  0.41060000  0.5
  C  C307  1  0.33660000  0.88720000  0.08940000  0.5
  C  C308  1  0.33660000  0.61280000  0.58940000  0.5
  C  C309  1  0.66340000  0.11280000  0.91060000  0.5
  C  C310  1  0.83540000  0.50560000  0.47420000  0.5
  C  C311  1  0.16460000  0.00560000  0.02580000  0.5
  C  C312  1  0.16460000  0.49440000  0.52580000  0.5
  C  C313  1  0.83540000  0.99440000  0.97420000  0.5
  C  C314  1  0.93470000  0.43030000  0.49360000  0.5
  C  C315  1  0.06530000  0.93030000  0.00640000  0.5
  C  C316  1  0.06530000  0.56970000  0.50640000  0.5
  C  C317  1  0.93470000  0.06970000  0.99360000  0.5
  C  C318  1  0.89850000  0.33350000  0.47160000  0.5
  C  C319  1  0.10150000  0.83350000  0.02840000  0.5
  C  C320  1  0.10150000  0.66650000  0.52840000  0.5
  C  C321  1  0.89850000  0.16650000  0.97160000  0.5
  C  C322  1  0.86970000  0.62300000  0.49330000  0.5
  C  C323  1  0.13030000  0.12300000  0.00670000  0.5
  C  C324  1  0.13030000  0.37700000  0.50670000  0.5
  C  C325  1  0.86970000  0.87700000  0.99330000  0.5
  C  C326  1  0.59730000  0.25780000  0.05590000  0.5
  C  C327  1  0.40270000  0.75780000  0.44410000  0.5
  C  C328  1  0.40270000  0.74220000  0.94410000  0.5
  C  C329  1  0.59730000  0.24220000  0.55590000  0.5
  C  C330  1  0.74860000  0.25240000  0.07660000  0.5
  C  C331  1  0.25140000  0.75240000  0.42340000  0.5
  C  C332  1  0.25140000  0.74760000  0.92340000  0.5
  C  C333  1  0.74860000  0.24760000  0.57660000  0.5
  C  C334  1  0.77800000  0.24620000  0.17970000  0.5
  C  C335  1  0.22200000  0.74620000  0.32030000  0.5
  C  C336  1  0.22200000  0.75380000  0.82030000  0.5
  C  C337  1  0.77800000  0.25380000  0.67970000  0.5
  C  C338  1  0.61470000  0.25110000  0.15730000  0.5
  C  C339  1  0.38530000  0.75110000  0.34270000  0.5
  C  C340  1  0.38530000  0.74890000  0.84270000  0.5
  C  C341  1  0.61470000  0.24890000  0.65730000  0.5
  C  C342  1  0.60920000  0.30170000  0.10710000  0.5
  C  C343  1  0.39080000  0.80170000  0.39290000  0.5
  C  C344  1  0.39080000  0.69830000  0.89290000  0.5
  C  C345  1  0.60920000  0.19830000  0.60710000  0.5
  C  C346  1  0.75960000  0.28790000  0.11780000  0.5
  C  C347  1  0.24040000  0.78790000  0.38220000  0.5
  C  C348  1  0.24040000  0.71210000  0.88220000  0.5
  C  C349  1  0.75960000  0.21210000  0.61780000  0.5
  C  C350  1  0.81800000  0.23590000  0.21640000  0.5
  C  C351  1  0.18200000  0.73590000  0.28360000  0.5
  C  C352  1  0.18200000  0.76410000  0.78360000  0.5
  C  C353  1  0.81800000  0.26410000  0.71640000  0.5
  C  C354  1  0.67390000  0.25580000  0.20690000  0.5
  C  C355  1  0.32610000  0.75580000  0.29310000  0.5
  C  C356  1  0.32610000  0.74420000  0.79310000  0.5
  C  C357  1  0.67390000  0.24420000  0.70690000  0.5
  S  S358  1  0.73665000  0.17380000  0.40802000  1.0
  S  S359  1  0.26335000  0.67380000  0.09198000  1.0
  S  S360  1  0.26335000  0.82620000  0.59198000  1.0
  S  S361  1  0.73665000  0.32620000  0.90802000  1.0
  N  N362  1  0.12876000  0.09910000  0.58496000  1.0
  N  N363  1  0.87124000  0.59910000  0.91504000  1.0
  N  N364  1  0.87124000  0.90090000  0.41504000  1.0
  N  N365  1  0.12876000  0.40090000  0.08496000  1.0
  N  N366  1  0.13704000  0.44840000  0.95054000  1.0
  N  N367  1  0.86296000  0.94840000  0.54946000  1.0
  N  N368  1  0.86296000  0.55160000  0.04946000  1.0
  N  N369  1  0.13704000  0.05160000  0.45054000  1.0
  N  N370  1  0.18699000  0.18840000  0.66969000  1.0
  N  N371  1  0.81301000  0.68840000  0.83031000  1.0
  N  N372  1  0.81301000  0.81160000  0.33031000  1.0
  N  N373  1  0.18699000  0.31160000  0.16969000  1.0
  N  N374  1  0.19916000  0.37840000  0.88306000  1.0
  N  N375  1  0.80084000  0.87840000  0.61694000  1.0
  N  N376  1  0.80084000  0.62160000  0.11694000  1.0
  N  N377  1  0.19916000  0.12160000  0.38306000  1.0
  O  O378  1  0.85220000  0.13230000  0.46050000  1.0
  O  O379  1  0.14780000  0.63230000  0.03950000  1.0
  O  O380  1  0.14780000  0.86770000  0.53950000  1.0
  O  O381  1  0.85220000  0.36770000  0.96050000  1.0
  O  O382  1  0.60620000  0.13730000  0.40450000  1.0
  O  O383  1  0.39380000  0.63730000  0.09550000  1.0
  O  O384  1  0.39380000  0.86270000  0.59550000  1.0
  O  O385  1  0.60620000  0.36270000  0.90450000  1.0
  O  O386  1  0.75250000  0.16250000  0.35090000  1.0
  O  O387  1  0.24750000  0.66250000  0.14910000  1.0
  O  O388  1  0.24750000  0.83750000  0.64910000  1.0
  O  O389  1  0.75250000  0.33750000  0.85090000  1.0
  O  O390  1  0.49460000  0.10560000  0.24870000  1.0
  O  O391  1  0.50540000  0.60560000  0.25130000  1.0
  O  O392  1  0.50540000  0.89440000  0.75130000  1.0
  O  O393  1  0.49460000  0.39440000  0.74870000  1.0
  O  O394  1  0.55440000  0.20970000  0.09570000  0.5
  O  O395  1  0.44560000  0.70970000  0.40430000  0.5
  O  O396  1  0.44560000  0.79030000  0.90430000  0.5
  O  O397  1  0.55440000  0.29030000  0.59570000  0.5
  O  O398  1  0.81950000  0.29590000  0.13700000  0.5
  O  O399  1  0.18050000  0.79590000  0.36300000  0.5
  O  O400  1  0.18050000  0.70410000  0.86300000  0.5
  O  O401  1  0.81950000  0.20410000  0.63700000  0.5
  O  O402  1  0.57170000  0.23510000  0.14190000  0.5
  O  O403  1  0.42830000  0.73510000  0.35810000  0.5
  O  O404  1  0.42830000  0.76490000  0.85810000  0.5
  O  O405  1  0.57170000  0.26490000  0.64190000  0.5
  O  O406  1  0.85080000  0.29840000  0.17670000  0.5
  O  O407  1  0.14920000  0.79840000  0.32330000  0.5
  O  O408  1  0.14920000  0.70160000  0.82330000  0.5
  O  O409  1  0.85080000  0.20160000  0.67670000  0.5
