# generated using pymatgen
data_CdH46C56S2N8(Cl2O3)2
_symmetry_space_group_name_H-M   'P 1'
_cell_length_a   9.29220000
_cell_length_b   22.57310000
_cell_length_c   15.91819047
_cell_angle_alpha   90.00000000
_cell_angle_beta   122.36604526
_cell_angle_gamma   90.00000000
_symmetry_Int_Tables_number   1
_chemical_formula_structural   CdH46C56S2N8(Cl2O3)2
_chemical_formula_sum   'Cd2 H92 C112 S4 N16 Cl8 O12'
_cell_volume   2820.18651306
_cell_formula_units_Z   2
loop_
 _symmetry_equiv_pos_site_id
 _symmetry_equiv_pos_as_xyz
  1  'x, y, z'
loop_
 _atom_site_type_symbol
 _atom_site_label
 _atom_site_symmetry_multiplicity
 _atom_site_fract_x
 _atom_site_fract_y
 _atom_site_fract_z
 _atom_site_occupancy
  Cd  Cd0  1  0.00000000  0.50000000  0.00000000  1.0
  Cd  Cd1  1  0.00000000  0.00000000  0.50000000  1.0
  H  H2  1  0.27416000  0.59702000  0.17970000  1.0
  H  H3  1  0.72584000  0.09702000  0.32030000  1.0
  H  H4  1  0.72584000  0.40298000  0.82030000  1.0
  H  H5  1  0.27416000  0.90298000  0.67970000  1.0
  H  H6  1  0.30794000  0.69101000  0.98462000  1.0
  H  H7  1  0.69206000  0.19101000  0.51538000  1.0
  H  H8  1  0.69206000  0.30899000  0.01538000  1.0
  H  H9  1  0.30794000  0.80899000  0.48462000  1.0
  H  H10  1  0.71637000  0.90407000  0.31366000  1.0
  H  H11  1  0.28363000  0.40407000  0.18634000  1.0
  H  H12  1  0.28363000  0.09593000  0.68634000  1.0
  H  H13  1  0.71637000  0.59593000  0.81366000  1.0
  H  H14  1  0.15146000  0.60107000  0.90385000  1.0
  H  H15  1  0.84854000  0.10107000  0.59615000  1.0
  H  H16  1  0.84854000  0.39893000  0.09615000  1.0
  H  H17  1  0.15146000  0.89893000  0.40385000  1.0
  H  H18  1  0.81236000  0.91014000  0.58476000  1.0
  H  H19  1  0.18764000  0.41014000  0.91524000  1.0
  H  H20  1  0.18764000  0.08986000  0.41524000  1.0
  H  H21  1  0.81236000  0.58986000  0.08476000  1.0
  H  H22  1  0.65381000  0.81817000  0.51320000  1.0
  H  H23  1  0.34619000  0.31817000  0.98680000  1.0
  H  H24  1  0.34619000  0.18183000  0.48680000  1.0
  H  H25  1  0.65381000  0.68183000  0.01320000  1.0
  H  H26  1  0.90458000  0.79148000  0.39838000  1.0
  H  H27  1  0.09542000  0.29148000  0.10162000  1.0
  H  H28  1  0.09542000  0.20852000  0.60162000  1.0
  H  H29  1  0.90458000  0.70852000  0.89838000  1.0
  H  H30  1  0.63284000  0.64049000  0.17160000  1.0
  H  H31  1  0.36716000  0.14049000  0.32840000  1.0
  H  H32  1  0.36716000  0.35951000  0.82840000  1.0
  H  H33  1  0.63284000  0.85951000  0.67160000  1.0
  H  H34  1  0.07188000  0.70983000  0.09993000  1.0
  H  H35  1  0.92812000  0.20983000  0.40007000  1.0
  H  H36  1  0.92812000  0.29017000  0.90007000  1.0
  H  H37  1  0.07188000  0.79017000  0.59993000  1.0
  H  H38  1  0.05947000  0.72678000  0.37156000  1.0
  H  H39  1  0.94053000  0.22678000  0.12844000  1.0
  H  H40  1  0.94053000  0.27322000  0.62844000  1.0
  H  H41  1  0.05947000  0.77322000  0.87156000  1.0
  H  H42  1  0.33703000  0.86637000  0.32258000  1.0
  H  H43  1  0.66297000  0.36637000  0.17742000  1.0
  H  H44  1  0.66297000  0.13363000  0.67742000  1.0
  H  H45  1  0.33703000  0.63363000  0.82258000  1.0
  H  H46  1  0.05382000  0.86052000  0.22459000  1.0
  H  H47  1  0.94618000  0.36052000  0.27541000  1.0
  H  H48  1  0.94618000  0.13948000  0.77541000  1.0
  H  H49  1  0.05382000  0.63948000  0.72459000  1.0
  H  H50  1  0.92052000  0.65173000  0.24673000  1.0
  H  H51  1  0.07948000  0.15173000  0.25327000  1.0
  H  H52  1  0.07948000  0.34827000  0.75327000  1.0
  H  H53  1  0.92052000  0.84827000  0.74673000  1.0
  H  H54  1  0.77168000  0.48438000  0.18000000  1.0
  H  H55  1  0.22832000  0.98438000  0.32000000  1.0
  H  H56  1  0.22832000  0.51562000  0.82000000  1.0
  H  H57  1  0.77168000  0.01562000  0.68000000  1.0
  H  H58  1  0.91984000  0.77942000  0.12291000  1.0
  H  H59  1  0.08016000  0.27942000  0.37709000  1.0
  H  H60  1  0.08016000  0.22058000  0.87709000  1.0
  H  H61  1  0.91984000  0.72058000  0.62291000  1.0
  H  H62  1  0.16785000  0.54934000  0.42898000  1.0
  H  H63  1  0.83215000  0.04934000  0.07102000  1.0
  H  H64  1  0.83215000  0.45066000  0.57102000  1.0
  H  H65  1  0.16785000  0.95066000  0.92898000  1.0
  H  H66  1  0.59633000  0.50180000  0.23995000  1.0
  H  H67  1  0.40367000  0.00180000  0.26005000  1.0
  H  H68  1  0.40367000  0.49820000  0.76005000  1.0
  H  H69  1  0.59633000  0.99820000  0.73995000  1.0
  H  H70  1  0.99219000  0.57814000  0.48228000  1.0
  H  H71  1  0.00781000  0.07814000  0.01772000  1.0
  H  H72  1  0.00781000  0.42186000  0.51772000  1.0
  H  H73  1  0.99219000  0.92186000  0.98228000  1.0
  H  H74  1  0.55831000  0.54296000  0.37161000  1.0
  H  H75  1  0.44169000  0.04296000  0.12839000  1.0
  H  H76  1  0.44169000  0.45704000  0.62839000  1.0
  H  H77  1  0.55831000  0.95704000  0.87161000  1.0
  H  H78  1  0.72202000  0.55638000  0.47589000  1.0
  H  H79  1  0.27798000  0.05638000  0.02411000  1.0
  H  H80  1  0.27798000  0.44362000  0.52411000  1.0
  H  H81  1  0.72202000  0.94362000  0.97589000  1.0
  H  H82  1  0.64281000  0.60582000  0.39405000  1.0
  H  H83  1  0.35719000  0.10582000  0.10595000  1.0
  H  H84  1  0.35719000  0.39418000  0.60595000  1.0
  H  H85  1  0.64281000  0.89418000  0.89405000  1.0
  H  H86  1  0.43096000  0.59796000  0.46356000  1.0
  H  H87  1  0.56904000  0.09796000  0.03644000  1.0
  H  H88  1  0.56904000  0.40204000  0.53644000  1.0
  H  H89  1  0.43096000  0.90204000  0.96356000  1.0
  H  H90  1  0.60433000  0.61338000  0.56259000  1.0
  H  H91  1  0.39567000  0.11338000  0.93741000  1.0
  H  H92  1  0.39567000  0.38662000  0.43741000  1.0
  H  H93  1  0.60433000  0.88662000  0.06259000  1.0
  C  C94  1  0.57200000  0.79560000  0.31580000  1.0
  C  C95  1  0.42800000  0.29560000  0.18420000  1.0
  C  C96  1  0.42800000  0.20440000  0.68420000  1.0
  C  C97  1  0.57200000  0.70440000  0.81580000  1.0
  C  C98  1  0.26480000  0.60880000  0.12100000  1.0
  C  C99  1  0.73520000  0.10880000  0.37900000  1.0
  C  C100  1  0.73520000  0.39120000  0.87900000  1.0
  C  C101  1  0.26480000  0.89120000  0.62100000  1.0
  C  C102  1  0.58510000  0.71040000  0.23200000  1.0
  C  C103  1  0.41490000  0.21040000  0.26800000  1.0
  C  C104  1  0.41490000  0.28960000  0.76800000  1.0
  C  C105  1  0.58510000  0.78960000  0.73200000  1.0
  C  C106  1  0.28350000  0.66070000  0.01460000  1.0
  C  C107  1  0.71650000  0.16070000  0.48540000  1.0
  C  C108  1  0.71650000  0.33930000  0.98540000  1.0
  C  C109  1  0.28350000  0.83930000  0.51460000  1.0
  C  C110  1  0.41330000  0.70410000  0.18290000  1.0
  C  C111  1  0.58670000  0.20410000  0.31710000  1.0
  C  C112  1  0.58670000  0.29590000  0.81710000  1.0
  C  C113  1  0.41330000  0.79590000  0.68290000  1.0
  C  C114  1  0.72250000  0.89420000  0.37220000  1.0
  C  C115  1  0.27750000  0.39420000  0.12780000  1.0
  C  C116  1  0.27750000  0.10580000  0.62780000  1.0
  C  C117  1  0.72250000  0.60580000  0.87220000  1.0
  C  C118  1  0.67010000  0.75740000  0.30180000  1.0
  C  C119  1  0.32990000  0.25740000  0.19820000  1.0
  C  C120  1  0.32990000  0.24260000  0.69820000  1.0
  C  C121  1  0.67010000  0.74260000  0.80180000  1.0
  C  C122  1  0.19690000  0.61120000  0.97010000  1.0
  C  C123  1  0.80310000  0.11120000  0.52990000  1.0
  C  C124  1  0.80310000  0.38880000  0.02990000  1.0
  C  C125  1  0.19690000  0.88880000  0.47010000  1.0
  C  C126  1  0.39040000  0.79340000  0.26600000  1.0
  C  C127  1  0.60960000  0.29340000  0.23400000  1.0
  C  C128  1  0.60960000  0.20660000  0.73400000  1.0
  C  C129  1  0.39040000  0.70660000  0.76600000  1.0
  C  C130  1  0.31110000  0.74400000  0.19690000  1.0
  C  C131  1  0.68890000  0.24400000  0.30310000  1.0
  C  C132  1  0.68890000  0.25600000  0.80310000  1.0
  C  C133  1  0.31110000  0.75600000  0.69690000  1.0
  C  C134  1  0.77300000  0.89670000  0.52080000  1.0
  C  C135  1  0.22700000  0.39670000  0.97920000  1.0
  C  C136  1  0.22700000  0.10330000  0.47920000  1.0
  C  C137  1  0.77300000  0.60330000  0.02080000  1.0
  C  C138  1  0.68600000  0.84560000  0.48270000  1.0
  C  C139  1  0.31400000  0.34560000  0.01730000  1.0
  C  C140  1  0.31400000  0.15440000  0.51730000  1.0
  C  C141  1  0.68600000  0.65440000  0.98270000  1.0
  C  C142  1  0.84900000  0.76130000  0.35210000  1.0
  C  C143  1  0.15100000  0.26130000  0.14790000  1.0
  C  C144  1  0.15100000  0.23870000  0.64790000  1.0
  C  C145  1  0.84900000  0.73870000  0.85210000  1.0
  C  C146  1  0.98610000  0.51270000  0.29810000  1.0
  C  C147  1  0.01390000  0.01270000  0.20190000  1.0
  C  C148  1  0.01390000  0.48730000  0.70190000  1.0
  C  C149  1  0.98610000  0.98730000  0.79810000  1.0
  C  C150  1  0.68640000  0.67160000  0.21610000  1.0
  C  C151  1  0.31360000  0.17160000  0.28390000  1.0
  C  C152  1  0.31360000  0.32840000  0.78390000  1.0
  C  C153  1  0.68640000  0.82840000  0.71610000  1.0
  C  C154  1  0.12840000  0.74090000  0.14380000  1.0
  C  C155  1  0.87160000  0.24090000  0.35620000  1.0
  C  C156  1  0.87160000  0.25910000  0.85620000  1.0
  C  C157  1  0.12840000  0.75910000  0.64380000  1.0
  C  C158  1  0.94140000  0.72340000  0.33560000  1.0
  C  C159  1  0.05860000  0.22340000  0.16440000  1.0
  C  C160  1  0.05860000  0.27660000  0.66440000  1.0
  C  C161  1  0.94140000  0.77660000  0.83560000  1.0
  C  C162  1  0.28690000  0.83570000  0.27670000  1.0
  C  C163  1  0.71310000  0.33570000  0.22330000  1.0
  C  C164  1  0.71310000  0.16430000  0.72330000  1.0
  C  C165  1  0.28690000  0.66430000  0.77670000  1.0
  C  C166  1  0.12010000  0.83090000  0.22120000  1.0
  C  C167  1  0.87990000  0.33090000  0.27880000  1.0
  C  C168  1  0.87990000  0.16910000  0.77880000  1.0
  C  C169  1  0.12010000  0.66910000  0.72120000  1.0
  C  C170  1  0.85850000  0.67690000  0.26200000  1.0
  C  C171  1  0.14150000  0.17690000  0.23800000  1.0
  C  C172  1  0.14150000  0.32310000  0.73800000  1.0
  C  C173  1  0.85850000  0.82310000  0.76200000  1.0
  C  C174  1  0.81750000  0.50110000  0.24270000  1.0
  C  C175  1  0.18250000  0.00110000  0.25730000  1.0
  C  C176  1  0.18250000  0.49890000  0.75730000  1.0
  C  C177  1  0.81750000  0.99890000  0.74270000  1.0
  C  C178  1  0.03780000  0.78260000  0.15680000  1.0
  C  C179  1  0.96220000  0.28260000  0.34320000  1.0
  C  C180  1  0.96220000  0.21740000  0.84320000  1.0
  C  C181  1  0.03780000  0.71740000  0.65680000  1.0
  C  C182  1  0.05180000  0.54130000  0.38980000  1.0
  C  C183  1  0.94820000  0.04130000  0.11020000  1.0
  C  C184  1  0.94820000  0.45870000  0.61020000  1.0
  C  C185  1  0.05180000  0.95870000  0.88980000  1.0
  C  C186  1  0.71010000  0.51330000  0.27650000  1.0
  C  C187  1  0.28990000  0.01330000  0.22350000  1.0
  C  C188  1  0.28990000  0.48670000  0.72350000  1.0
  C  C189  1  0.71010000  0.98670000  0.77650000  1.0
  C  C190  1  0.94790000  0.55760000  0.42270000  1.0
  C  C191  1  0.05210000  0.05760000  0.07730000  1.0
  C  C192  1  0.05210000  0.44240000  0.57730000  1.0
  C  C193  1  0.94790000  0.94240000  0.92270000  1.0
  C  C194  1  0.77800000  0.54330000  0.36680000  1.0
  C  C195  1  0.22200000  0.04330000  0.13320000  1.0
  C  C196  1  0.22200000  0.45670000  0.63320000  1.0
  C  C197  1  0.77800000  0.95670000  0.86680000  1.0
  C  C198  1  0.66440000  0.56410000  0.40580000  1.0
  C  C199  1  0.33560000  0.06410000  0.09420000  1.0
  C  C200  1  0.33560000  0.43590000  0.59420000  1.0
  C  C201  1  0.66440000  0.93590000  0.90580000  1.0
  C  C202  1  0.48890000  0.62700000  0.51640000  1.0
  C  C203  1  0.51110000  0.12700000  0.98360000  1.0
  C  C204  1  0.51110000  0.37300000  0.48360000  1.0
  C  C205  1  0.48890000  0.87300000  0.01640000  1.0
  S  S206  1  0.12518000  0.49707000  0.25971000  1.0
  S  S207  1  0.87482000  0.99707000  0.24029000  1.0
  S  S208  1  0.87482000  0.50293000  0.74029000  1.0
  S  S209  1  0.12518000  0.00293000  0.75971000  1.0
  N  N210  1  0.32980000  0.65900000  0.11160000  1.0
  N  N211  1  0.67020000  0.15900000  0.38840000  1.0
  N  N212  1  0.67020000  0.34100000  0.88840000  1.0
  N  N213  1  0.32980000  0.84100000  0.61160000  1.0
  N  N214  1  0.18640000  0.57760000  0.03900000  1.0
  N  N215  1  0.81360000  0.07760000  0.46100000  1.0
  N  N216  1  0.81360000  0.42240000  0.96100000  1.0
  N  N217  1  0.18640000  0.92240000  0.53900000  1.0
  N  N218  1  0.79620000  0.92610000  0.45410000  1.0
  N  N219  1  0.20380000  0.42610000  0.04590000  1.0
  N  N220  1  0.20380000  0.07390000  0.54590000  1.0
  N  N221  1  0.79620000  0.57390000  0.95410000  1.0
  N  N222  1  0.65580000  0.84380000  0.38720000  1.0
  N  N223  1  0.34420000  0.34380000  0.11280000  1.0
  N  N224  1  0.34420000  0.15620000  0.61280000  1.0
  N  N225  1  0.65580000  0.65620000  0.88720000  1.0
  Cl  Cl226  1  0.49080000  0.69243000  0.46990000  1.0
  Cl  Cl227  1  0.50920000  0.19243000  0.03010000  1.0
  Cl  Cl228  1  0.50920000  0.30757000  0.53010000  1.0
  Cl  Cl229  1  0.49080000  0.80757000  0.96990000  1.0
  Cl  Cl230  1  0.38010000  0.63660000  0.57800000  1.0
  Cl  Cl231  1  0.61990000  0.13660000  0.92200000  1.0
  Cl  Cl232  1  0.61990000  0.36340000  0.42200000  1.0
  Cl  Cl233  1  0.38010000  0.86340000  0.07800000  1.0
  O  O234  1  0.02790000  0.50310000  0.15320000  1.0
  O  O235  1  0.97210000  0.00310000  0.34680000  1.0
  O  O236  1  0.97210000  0.49690000  0.84680000  1.0
  O  O237  1  0.02790000  0.99690000  0.65320000  1.0
  O  O238  1  0.17480000  0.43580000  0.28600000  1.0
  O  O239  1  0.82520000  0.93580000  0.21400000  1.0
  O  O240  1  0.82520000  0.56420000  0.71400000  1.0
  O  O241  1  0.17480000  0.06420000  0.78600000  1.0
  O  O242  1  0.25620000  0.53820000  0.30610000  1.0
  O  O243  1  0.74380000  0.03820000  0.19390000  1.0
  O  O244  1  0.74380000  0.46180000  0.69390000  1.0
  O  O245  1  0.25620000  0.96180000  0.80610000  1.0
