data_image0
_chemical_formula_structural       Y4H12C32O24
_chemical_formula_sum              "Y4 H12 C32 O24"
_cell_length_a       8.9348
_cell_length_b       9.6608
_cell_length_c       17.017
_cell_angle_alpha    90
_cell_angle_beta     102.774
_cell_angle_gamma    90

_space_group_name_H-M_alt    "P 1"
_space_group_IT_number       1

loop_
  _space_group_symop_operation_xyz
  'x, y, z'

loop_
  _atom_site_type_symbol
  _atom_site_label
  _atom_site_symmetry_multiplicity
  _atom_site_fract_x
  _atom_site_fract_y
  _atom_site_fract_z
  _atom_site_occupancy
  Y   Y1        1.0  0.35961  0.79057  0.28713  1.0000
  Y   Y2        1.0  0.14039  0.29057  0.71287  1.0000
  Y   Y3        1.0  0.64039  0.20943  0.71287  1.0000
  Y   Y4        1.0  0.85961  0.70943  0.28713  1.0000
  H   H1        1.0  0.76310  0.52690  0.53790  1.0000
  H   H2        1.0  0.73690  0.02690  0.46210  1.0000
  H   H3        1.0  0.23690  0.47310  0.46210  1.0000
  H   H4        1.0  0.26310  0.97310  0.53790  1.0000
  H   H5        1.0  0.30940  0.94250  0.06600  1.0000
  H   H6        1.0  0.19060  0.44250  0.93400  1.0000
  H   H7        1.0  0.69060  0.05750  0.93400  1.0000
  H   H8        1.0  0.80940  0.55750  0.06600  1.0000
  H   H9        1.0  0.80950  0.86870  0.09600  1.0000
  H   H10       1.0  0.69050  0.36870  0.90400  1.0000
  H   H11       1.0  0.19050  0.13130  0.90400  1.0000
  H   H12       1.0  0.30950  0.63130  0.09600  1.0000
  C   C1        1.0  0.67160  0.63030  0.39590  1.0000
  C   C2        1.0  0.82840  0.13030  0.60410  1.0000
  C   C3        1.0  0.32840  0.36970  0.60410  1.0000
  C   C4        1.0  0.17160  0.86970  0.39590  1.0000
  C   C5        1.0  0.58020  0.56430  0.44860  1.0000
  C   C6        1.0  0.91980  0.06430  0.55140  1.0000
  C   C7        1.0  0.41980  0.43570  0.55140  1.0000
  C   C8        1.0  0.08020  0.93570  0.44860  1.0000
  C   C9        1.0  0.41710  0.55010  0.42320  1.0000
  C   C10       1.0  0.08290  0.05010  0.57680  1.0000
  C   C11       1.0  0.58290  0.44990  0.57680  1.0000
  C   C12       1.0  0.91710  0.94990  0.42320  1.0000
  C   C13       1.0  0.65720  0.51550  0.52300  1.0000
  C   C14       1.0  0.84280  0.01550  0.47700  1.0000
  C   C15       1.0  0.34280  0.48450  0.47700  1.0000
  C   C16       1.0  0.15720  0.98450  0.52300  1.0000
  C   C17       1.0  0.56780  0.84590  0.14910  1.0000
  C   C18       1.0  0.93220  0.34590  0.85090  1.0000
  C   C19       1.0  0.43220  0.15410  0.85090  1.0000
  C   C20       1.0  0.06780  0.65410  0.14910  1.0000
  C   C21       1.0  0.53560  0.92380  0.07140  1.0000
  C   C22       1.0  0.96440  0.42380  0.92860  1.0000
  C   C23       1.0  0.46440  0.07620  0.92860  1.0000
  C   C24       1.0  0.03560  0.57620  0.07140  1.0000
  C   C25       1.0  0.65300  0.95650  0.03070  1.0000
  C   C26       1.0  0.84700  0.45650  0.96930  1.0000
  C   C27       1.0  0.34700  0.04350  0.96930  1.0000
  C   C28       1.0  0.15300  0.54350  0.03070  1.0000
  C   C29       1.0  0.38590  0.96650  0.03940  1.0000
  C   C30       1.0  0.11410  0.46650  0.96060  1.0000
  C   C31       1.0  0.61410  0.03350  0.96060  1.0000
  C   C32       1.0  0.88590  0.53350  0.03940  1.0000
  O   O1        1.0  0.60730  0.69950  0.33390  1.0000
  O   O2        1.0  0.89270  0.19950  0.66610  1.0000
  O   O3        1.0  0.39270  0.30050  0.66610  1.0000
  O   O4        1.0  0.10730  0.80050  0.33390  1.0000
  O   O5        1.0  0.81520  0.61000  0.40900  1.0000
  O   O6        1.0  0.68480  0.11000  0.59100  1.0000
  O   O7        1.0  0.18480  0.39000  0.59100  1.0000
  O   O8        1.0  0.31520  0.89000  0.40900  1.0000
  O   O9        1.0  0.33710  0.59200  0.35090  1.0000
  O   O10       1.0  0.16290  0.09200  0.64910  1.0000
  O   O11       1.0  0.66290  0.40800  0.64910  1.0000
  O   O12       1.0  0.83710  0.90800  0.35090  1.0000
  O   O13       1.0  0.70730  0.83700  0.18650  1.0000
  O   O14       1.0  0.79270  0.33700  0.81350  1.0000
  O   O15       1.0  0.29270  0.16300  0.81350  1.0000
  O   O16       1.0  0.20730  0.66300  0.18650  1.0000
  O   O17       1.0  0.45800  0.79370  0.17380  1.0000
  O   O18       1.0  0.04200  0.29370  0.82620  1.0000
  O   O19       1.0  0.54200  0.20630  0.82620  1.0000
  O   O20       1.0  0.95800  0.70630  0.17380  1.0000
  O   O21       1.0  0.80000  0.91550  0.05500  1.0000
  O   O22       1.0  0.70000  0.41550  0.94500  1.0000
  O   O23       1.0  0.20000  0.08450  0.94500  1.0000
  O   O24       1.0  0.30000  0.58450  0.05500  1.0000
