data_image0
_chemical_formula_structural       Zn4H112C176N32O20F36
_chemical_formula_sum              "Zn4 H112 C176 N32 O20 F36"
_cell_length_a       13.6068
_cell_length_b       18.0054
_cell_length_c       23.2487
_cell_angle_alpha    90
_cell_angle_beta     119.32
_cell_angle_gamma    90

_space_group_name_H-M_alt    "P 1"
_space_group_IT_number       1

loop_
  _space_group_symop_operation_xyz
  'x, y, z'

loop_
  _atom_site_type_symbol
  _atom_site_label
  _atom_site_symmetry_multiplicity
  _atom_site_fract_x
  _atom_site_fract_y
  _atom_site_fract_z
  _atom_site_occupancy
  Zn  Zn1       1.0  0.76564  0.23668  0.25977  1.0000
  Zn  Zn2       1.0  0.23436  0.73668  0.24023  1.0000
  Zn  Zn3       1.0  0.23436  0.76332  0.74023  1.0000
  Zn  Zn4       1.0  0.76564  0.26332  0.75977  1.0000
  H   H1        1.0  0.58428  0.13499  0.14127  1.0000
  H   H2        1.0  0.41572  0.63499  0.35873  1.0000
  H   H3        1.0  0.41572  0.86501  0.85873  1.0000
  H   H4        1.0  0.58428  0.36501  0.64127  1.0000
  H   H5        1.0  0.82250  0.05514  0.10863  1.0000
  H   H6        1.0  0.17750  0.55514  0.39137  1.0000
  H   H7        1.0  0.17750  0.94486  0.89137  1.0000
  H   H8        1.0  0.82250  0.44486  0.60863  1.0000
  H   H9        1.0  0.90545  0.14758  0.19657  1.0000
  H   H10       1.0  0.09455  0.64758  0.30343  1.0000
  H   H11       1.0  0.09455  0.85242  0.80343  1.0000
  H   H12       1.0  0.90545  0.35242  0.69657  1.0000
  H   H13       1.0  0.62243  0.16924  0.01218  1.0000
  H   H14       1.0  0.37757  0.66924  0.48782  1.0000
  H   H15       1.0  0.37757  0.83076  0.98782  1.0000
  H   H16       1.0  0.62243  0.33076  0.51218  1.0000
  H   H17       1.0  0.53414  0.21928  0.90985  1.0000
  H   H18       1.0  0.46586  0.71928  0.59015  1.0000
  H   H19       1.0  0.46586  0.78072  0.09015  1.0000
  H   H20       1.0  0.53414  0.28072  0.40985  1.0000
  H   H21       1.0  0.39215  0.15435  0.82104  1.0000
  H   H22       1.0  0.60785  0.65435  0.67896  1.0000
  H   H23       1.0  0.60785  0.84565  0.17896  1.0000
  H   H24       1.0  0.39215  0.34565  0.32104  1.0000
  H   H25       1.0  0.33668  0.04016  0.83631  1.0000
  H   H26       1.0  0.66332  0.54016  0.66369  1.0000
  H   H27       1.0  0.66332  0.95984  0.16369  1.0000
  H   H28       1.0  0.33668  0.45984  0.33631  1.0000
  H   H29       1.0  0.02640  0.22378  0.38087  1.0000
  H   H30       1.0  0.97360  0.72378  0.11913  1.0000
  H   H31       1.0  0.97360  0.77622  0.61913  1.0000
  H   H32       1.0  0.02640  0.27622  0.88087  1.0000
  H   H33       1.0  0.80799  0.06114  0.31460  1.0000
  H   H34       1.0  0.19201  0.56114  0.18540  1.0000
  H   H35       1.0  0.19201  0.93886  0.68540  1.0000
  H   H36       1.0  0.80799  0.43886  0.81460  1.0000
  H   H37       1.0  0.98680  0.00937  0.39981  1.0000
  H   H38       1.0  0.01320  0.50937  0.10019  1.0000
  H   H39       1.0  0.01320  0.99063  0.60019  1.0000
  H   H40       1.0  0.98680  0.49063  0.89981  1.0000
  H   H41       1.0  0.15066  0.11263  0.34179  1.0000
  H   H42       1.0  0.84934  0.61263  0.15821  1.0000
  H   H43       1.0  0.84934  0.88737  0.65821  1.0000
  H   H44       1.0  0.15066  0.38737  0.84179  1.0000
  H   H45       1.0  0.29079  0.12624  0.31613  1.0000
  H   H46       1.0  0.70921  0.62624  0.18387  1.0000
  H   H47       1.0  0.70921  0.87376  0.68387  1.0000
  H   H48       1.0  0.29079  0.37376  0.81613  1.0000
  H   H49       1.0  0.47890  0.13535  0.39971  1.0000
  H   H50       1.0  0.52110  0.63535  0.10029  1.0000
  H   H51       1.0  0.52110  0.86465  0.60029  1.0000
  H   H52       1.0  0.47890  0.36465  0.89971  1.0000
  H   H53       1.0  0.52388  0.13051  0.50779  1.0000
  H   H54       1.0  0.47612  0.63051  0.99221  1.0000
  H   H55       1.0  0.47612  0.86949  0.49221  1.0000
  H   H56       1.0  0.52388  0.36949  0.00779  1.0000
  H   H57       1.0  0.40141  0.11436  0.67778  1.0000
  H   H58       1.0  0.59859  0.61436  0.82222  1.0000
  H   H59       1.0  0.59859  0.88564  0.32222  1.0000
  H   H60       1.0  0.40141  0.38564  0.17778  1.0000
  H   H61       1.0  0.26049  0.11773  0.70282  1.0000
  H   H62       1.0  0.73951  0.61773  0.79718  1.0000
  H   H63       1.0  0.73951  0.88227  0.29718  1.0000
  H   H64       1.0  0.26049  0.38227  0.20282  1.0000
  H   H65       1.0  0.07086  0.12142  0.61932  1.0000
  H   H66       1.0  0.92914  0.62142  0.88068  1.0000
  H   H67       1.0  0.92914  0.87858  0.38068  1.0000
  H   H68       1.0  0.07086  0.37858  0.11932  1.0000
  H   H69       1.0  0.02621  0.11453  0.51153  1.0000
  H   H70       1.0  0.97379  0.61453  0.98847  1.0000
  H   H71       1.0  0.97379  0.88547  0.48847  1.0000
  H   H72       1.0  0.02621  0.38547  0.01153  1.0000
  H   H73       1.0  0.50824  0.23753  0.63443  1.0000
  H   H74       1.0  0.49176  0.73753  0.86557  1.0000
  H   H75       1.0  0.49176  0.76247  0.36557  1.0000
  H   H76       1.0  0.50824  0.26247  0.13443  1.0000
  H   H77       1.0  0.74723  0.08791  0.70987  1.0000
  H   H78       1.0  0.25277  0.58791  0.79013  1.0000
  H   H79       1.0  0.25277  0.91209  0.29013  1.0000
  H   H80       1.0  0.74723  0.41209  0.20987  1.0000
  H   H81       1.0  0.57814  0.02568  0.62550  1.0000
  H   H82       1.0  0.42186  0.52568  0.87450  1.0000
  H   H83       1.0  0.42186  0.97432  0.37450  1.0000
  H   H84       1.0  0.57814  0.47432  0.12550  1.0000
  H   H85       1.0  0.93885  0.34771  0.37450  1.0000
  H   H86       1.0  0.06115  0.84771  0.12550  1.0000
  H   H87       1.0  0.06115  0.65229  0.62550  1.0000
  H   H88       1.0  0.93885  0.15229  0.87450  1.0000
  H   H89       1.0  0.62103  0.31634  0.32362  1.0000
  H   H90       1.0  0.37897  0.81634  0.17638  1.0000
  H   H91       1.0  0.37897  0.68366  0.67638  1.0000
  H   H92       1.0  0.62103  0.18366  0.82362  1.0000
  H   H93       1.0  0.69228  0.41500  0.40610  1.0000
  H   H94       1.0  0.30772  0.91500  0.09390  1.0000
  H   H95       1.0  0.30772  0.58500  0.59390  1.0000
  H   H96       1.0  0.69228  0.08500  0.90610  1.0000
  H   H97       1.0  0.90215  0.33014  0.51479  1.0000
  H   H98       1.0  0.09785  0.83014  0.98521  1.0000
  H   H99       1.0  0.09785  0.66986  0.48521  1.0000
  H   H100      1.0  0.90215  0.16986  0.01479  1.0000
  H   H101      1.0  0.99508  0.30169  0.62412  1.0000
  H   H102      1.0  0.00492  0.80169  0.87588  1.0000
  H   H103      1.0  0.00492  0.69831  0.37588  1.0000
  H   H104      1.0  0.99508  0.19831  0.12412  1.0000
  H   H105      1.0  0.12236  0.38703  0.70144  1.0000
  H   H106      1.0  0.87764  0.88703  0.79856  1.0000
  H   H107      1.0  0.87764  0.61297  0.29856  1.0000
  H   H108      1.0  0.12236  0.11297  0.20144  1.0000
  H   H109      1.0  0.15797  0.49618  0.66800  1.0000
  H   H110      1.0  0.84203  0.99618  0.83200  1.0000
  H   H111      1.0  0.84203  0.50382  0.33200  1.0000
  H   H112      1.0  0.15797  0.00382  0.16800  1.0000
  C   C1        1.0  0.65400  0.12690  0.14410  1.0000
  C   C2        1.0  0.34600  0.62690  0.35590  1.0000
  C   C3        1.0  0.34600  0.87310  0.85590  1.0000
  C   C4        1.0  0.65400  0.37310  0.64410  1.0000
  C   C5        1.0  0.78460  0.08260  0.12560  1.0000
  C   C6        1.0  0.21540  0.58260  0.37440  1.0000
  C   C7        1.0  0.21540  0.91740  0.87440  1.0000
  C   C8        1.0  0.78460  0.41740  0.62560  1.0000
  C   C9        1.0  0.83010  0.13340  0.17440  1.0000
  C   C10       1.0  0.16990  0.63340  0.32560  1.0000
  C   C11       1.0  0.16990  0.86660  0.82560  1.0000
  C   C12       1.0  0.83010  0.36660  0.67440  1.0000
  C   C13       1.0  0.58530  0.03780  0.05190  1.0000
  C   C14       1.0  0.41470  0.53780  0.44810  1.0000
  C   C15       1.0  0.41470  0.96220  0.94810  1.0000
  C   C16       1.0  0.58530  0.46220  0.55190  1.0000
  C   C17       1.0  0.53430  0.07120  0.98960  1.0000
  C   C18       1.0  0.46570  0.57120  0.51040  1.0000
  C   C19       1.0  0.46570  0.92880  0.01040  1.0000
  C   C20       1.0  0.53430  0.42880  0.48960  1.0000
  C   C21       1.0  0.56540  0.14280  0.97760  1.0000
  C   C22       1.0  0.43460  0.64280  0.52240  1.0000
  C   C23       1.0  0.43460  0.85720  0.02240  1.0000
  C   C24       1.0  0.56540  0.35720  0.47760  1.0000
  C   C25       1.0  0.51310  0.17240  0.91670  1.0000
  C   C26       1.0  0.48690  0.67240  0.58330  1.0000
  C   C27       1.0  0.48690  0.82760  0.08330  1.0000
  C   C28       1.0  0.51310  0.32760  0.41670  1.0000
  C   C29       1.0  0.42660  0.13330  0.86290  1.0000
  C   C30       1.0  0.57340  0.63330  0.63710  1.0000
  C   C31       1.0  0.57340  0.86670  0.13710  1.0000
  C   C32       1.0  0.42660  0.36670  0.36290  1.0000
  C   C33       1.0  0.39380  0.06510  0.87210  1.0000
  C   C34       1.0  0.60620  0.56510  0.62790  1.0000
  C   C35       1.0  0.60620  0.93490  0.12790  1.0000
  C   C36       1.0  0.39380  0.43490  0.37210  1.0000
  C   C37       1.0  0.44500  0.03140  0.93520  1.0000
  C   C38       1.0  0.55500  0.53140  0.56480  1.0000
  C   C39       1.0  0.55500  0.96860  0.06480  1.0000
  C   C40       1.0  0.44500  0.46860  0.43520  1.0000
  C   C41       1.0  0.99350  0.17710  0.37490  1.0000
  C   C42       1.0  0.00650  0.67710  0.12510  1.0000
  C   C43       1.0  0.00650  0.82290  0.62510  1.0000
  C   C44       1.0  0.99350  0.32290  0.87490  1.0000
  C   C45       1.0  0.87450  0.08770  0.33880  1.0000
  C   C46       1.0  0.12550  0.58770  0.16120  1.0000
  C   C47       1.0  0.12550  0.91230  0.66120  1.0000
  C   C48       1.0  0.87450  0.41230  0.83880  1.0000
  C   C49       1.0  0.97310  0.05860  0.38600  1.0000
  C   C50       1.0  0.02690  0.55860  0.11400  1.0000
  C   C51       1.0  0.02690  0.94140  0.61400  1.0000
  C   C52       1.0  0.97310  0.44140  0.88600  1.0000
  C   C53       1.0  0.16430  0.11370  0.46030  1.0000
  C   C54       1.0  0.83570  0.61370  0.03970  1.0000
  C   C55       1.0  0.83570  0.88630  0.53970  1.0000
  C   C56       1.0  0.16430  0.38630  0.96030  1.0000
  C   C57       1.0  0.24760  0.11600  0.44220  1.0000
  C   C58       1.0  0.75240  0.61600  0.05780  1.0000
  C   C59       1.0  0.75240  0.88400  0.55780  1.0000
  C   C60       1.0  0.24760  0.38400  0.94220  1.0000
  C   C61       1.0  0.22480  0.11710  0.37560  1.0000
  C   C62       1.0  0.77520  0.61710  0.12440  1.0000
  C   C63       1.0  0.77520  0.88290  0.62440  1.0000
  C   C64       1.0  0.22480  0.38290  0.87560  1.0000
  C   C65       1.0  0.30830  0.12460  0.36010  1.0000
  C   C66       1.0  0.69170  0.62460  0.13990  1.0000
  C   C67       1.0  0.69170  0.87540  0.63990  1.0000
  C   C68       1.0  0.30830  0.37540  0.86010  1.0000
  C   C69       1.0  0.42210  0.13000  0.41070  1.0000
  C   C70       1.0  0.57790  0.63000  0.08930  1.0000
  C   C71       1.0  0.57790  0.87000  0.58930  1.0000
  C   C72       1.0  0.42210  0.37000  0.91070  1.0000
  C   C73       1.0  0.44870  0.12730  0.47510  1.0000
  C   C74       1.0  0.55130  0.62730  0.02490  1.0000
  C   C75       1.0  0.55130  0.87270  0.52490  1.0000
  C   C76       1.0  0.44870  0.37270  0.97510  1.0000
  C   C77       1.0  0.36410  0.11980  0.49350  1.0000
  C   C78       1.0  0.63590  0.61980  0.00650  1.0000
  C   C79       1.0  0.63590  0.88020  0.50650  1.0000
  C   C80       1.0  0.36410  0.38020  0.99350  1.0000
  C   C81       1.0  0.38720  0.11930  0.55920  1.0000
  C   C82       1.0  0.61280  0.61930  0.94080  1.0000
  C   C83       1.0  0.61280  0.88070  0.44080  1.0000
  C   C84       1.0  0.38720  0.38070  0.05920  1.0000
  C   C85       1.0  0.30350  0.11510  0.57700  1.0000
  C   C86       1.0  0.69650  0.61510  0.92300  1.0000
  C   C87       1.0  0.69650  0.88490  0.42300  1.0000
  C   C88       1.0  0.30350  0.38490  0.07700  1.0000
  C   C89       1.0  0.32700  0.11540  0.64390  1.0000
  C   C90       1.0  0.67300  0.61540  0.85610  1.0000
  C   C91       1.0  0.67300  0.88460  0.35610  1.0000
  C   C92       1.0  0.32700  0.38460  0.14390  1.0000
  C   C93       1.0  0.24300  0.11730  0.65880  1.0000
  C   C94       1.0  0.75700  0.61730  0.84120  1.0000
  C   C95       1.0  0.75700  0.88270  0.34120  1.0000
  C   C96       1.0  0.24300  0.38270  0.15880  1.0000
  C   C97       1.0  0.12780  0.11850  0.60820  1.0000
  C   C98       1.0  0.87220  0.61850  0.89180  1.0000
  C   C99       1.0  0.87220  0.88150  0.39180  1.0000
  C   C100      1.0  0.12780  0.38150  0.10820  1.0000
  C   C101      1.0  0.10160  0.11540  0.54420  1.0000
  C   C102      1.0  0.89840  0.61540  0.95580  1.0000
  C   C103      1.0  0.89840  0.88460  0.45580  1.0000
  C   C104      1.0  0.10160  0.38460  0.04420  1.0000
  C   C105      1.0  0.18710  0.11340  0.52570  1.0000
  C   C106      1.0  0.81290  0.61340  0.97430  1.0000
  C   C107      1.0  0.81290  0.88660  0.47430  1.0000
  C   C108      1.0  0.18710  0.38660  0.02570  1.0000
  C   C109      1.0  0.54720  0.19290  0.64270  1.0000
  C   C110      1.0  0.45280  0.69290  0.85730  1.0000
  C   C111      1.0  0.45280  0.80710  0.35730  1.0000
  C   C112      1.0  0.54720  0.30710  0.14270  1.0000
  C   C113      1.0  0.67750  0.11030  0.68390  1.0000
  C   C114      1.0  0.32250  0.61030  0.81610  1.0000
  C   C115      1.0  0.32250  0.88970  0.31610  1.0000
  C   C116      1.0  0.67750  0.38970  0.18390  1.0000
  C   C117      1.0  0.58470  0.07560  0.63720  1.0000
  C   C118      1.0  0.41530  0.57560  0.86280  1.0000
  C   C119      1.0  0.41530  0.92440  0.36280  1.0000
  C   C120      1.0  0.58470  0.42440  0.13720  1.0000
  C   C121      1.0  0.86870  0.35190  0.37190  1.0000
  C   C122      1.0  0.13130  0.85190  0.12810  1.0000
  C   C123      1.0  0.13130  0.64810  0.62810  1.0000
  C   C124      1.0  0.86870  0.14810  0.87190  1.0000
  C   C125      1.0  0.69410  0.33510  0.34420  1.0000
  C   C126      1.0  0.30590  0.83510  0.15580  1.0000
  C   C127      1.0  0.30590  0.66490  0.65580  1.0000
  C   C128      1.0  0.69410  0.16490  0.84420  1.0000
  C   C129      1.0  0.73290  0.38950  0.38980  1.0000
  C   C130      1.0  0.26710  0.88950  0.11020  1.0000
  C   C131      1.0  0.26710  0.61050  0.61020  1.0000
  C   C132      1.0  0.73290  0.11050  0.88980  1.0000
  C   C133      1.0  0.94520  0.51700  0.43160  1.0000
  C   C134      1.0  0.05480  0.01700  0.06840  1.0000
  C   C135      1.0  0.05480  0.48300  0.56840  1.0000
  C   C136      1.0  0.94520  0.98300  0.93160  1.0000
  C   C137      1.0  0.92280  0.45130  0.45490  1.0000
  C   C138      1.0  0.07720  0.95130  0.04510  1.0000
  C   C139      1.0  0.07720  0.54870  0.54510  1.0000
  C   C140      1.0  0.92280  0.04870  0.95490  1.0000
  C   C141      1.0  0.97380  0.43240  0.52120  1.0000
  C   C142      1.0  0.02620  0.93240  0.97880  1.0000
  C   C143      1.0  0.02620  0.56760  0.47880  1.0000
  C   C144      1.0  0.97380  0.06760  0.02120  1.0000
  C   C145      1.0  0.95360  0.36380  0.54470  1.0000
  C   C146      1.0  0.04640  0.86380  0.95530  1.0000
  C   C147      1.0  0.04640  0.63620  0.45530  1.0000
  C   C148      1.0  0.95360  0.13620  0.04470  1.0000
  C   C149      1.0  0.00840  0.34690  0.60990  1.0000
  C   C150      1.0  0.99160  0.84690  0.89010  1.0000
  C   C151      1.0  0.99160  0.65310  0.39010  1.0000
  C   C152      1.0  0.00840  0.15310  0.10990  1.0000
  C   C153      1.0  0.08620  0.39850  0.65670  1.0000
  C   C154      1.0  0.91380  0.89850  0.84330  1.0000
  C   C155      1.0  0.91380  0.60150  0.34330  1.0000
  C   C156      1.0  0.08620  0.10150  0.15670  1.0000
  C   C157      1.0  0.10750  0.46320  0.63670  1.0000
  C   C158      1.0  0.89250  0.96320  0.86330  1.0000
  C   C159      1.0  0.89250  0.53680  0.36330  1.0000
  C   C160      1.0  0.10750  0.03680  0.13670  1.0000
  C   C161      1.0  0.98490  0.30620  0.25100  1.0000
  C   C162      1.0  0.01510  0.80620  0.24900  1.0000
  C   C163      1.0  0.01510  0.69380  0.74900  1.0000
  C   C164      1.0  0.98490  0.19380  0.75100  1.0000
  C   C165      1.0  0.04710  0.37690  0.27130  1.0000
  C   C166      1.0  0.95290  0.87690  0.22870  1.0000
  C   C167      1.0  0.95290  0.62310  0.72870  1.0000
  C   C168      1.0  0.04710  0.12310  0.77130  1.0000
  C   C169      1.0  0.54240  0.16940  0.26300  1.0000
  C   C170      1.0  0.45760  0.66940  0.23700  1.0000
  C   C171      1.0  0.45760  0.83060  0.73700  1.0000
  C   C172      1.0  0.54240  0.33060  0.76300  1.0000
  C   C173      1.0  0.49980  0.09070  0.25900  1.0000
  C   C174      1.0  0.50020  0.59070  0.24100  1.0000
  C   C175      1.0  0.50020  0.90930  0.74100  1.0000
  C   C176      1.0  0.49980  0.40930  0.75900  1.0000
  N   N1        1.0  0.74752  0.16080  0.18602  1.0000
  N   N2        1.0  0.25248  0.66080  0.31398  1.0000
  N   N3        1.0  0.25248  0.83920  0.81398  1.0000
  N   N4        1.0  0.74752  0.33920  0.68602  1.0000
  N   N5        1.0  0.88773  0.16230  0.33213  1.0000
  N   N6        1.0  0.11227  0.66230  0.16787  1.0000
  N   N7        1.0  0.11227  0.83770  0.66787  1.0000
  N   N8        1.0  0.88773  0.33770  0.83213  1.0000
  N   N9        1.0  0.77882  0.31180  0.33262  1.0000
  N   N10       1.0  0.22118  0.81180  0.16738  1.0000
  N   N11       1.0  0.22118  0.68820  0.66738  1.0000
  N   N12       1.0  0.77882  0.18820  0.83262  1.0000
  N   N13       1.0  0.65365  0.18380  0.68745  1.0000
  N   N14       1.0  0.34635  0.68380  0.81255  1.0000
  N   N15       1.0  0.34635  0.81620  0.31255  1.0000
  N   N16       1.0  0.65365  0.31620  0.18745  1.0000
  N   N17       1.0  0.67160  0.07920  0.10590  1.0000
  N   N18       1.0  0.32840  0.57920  0.39410  1.0000
  N   N19       1.0  0.32840  0.92080  0.89410  1.0000
  N   N20       1.0  0.67160  0.42080  0.60590  1.0000
  N   N21       1.0  0.04810  0.11580  0.40900  1.0000
  N   N22       1.0  0.95190  0.61580  0.09100  1.0000
  N   N23       1.0  0.95190  0.88420  0.59100  1.0000
  N   N24       1.0  0.04810  0.38420  0.90900  1.0000
  N   N25       1.0  0.84370  0.39970  0.40750  1.0000
  N   N26       1.0  0.15630  0.89970  0.09250  1.0000
  N   N27       1.0  0.15630  0.60030  0.59250  1.0000
  N   N28       1.0  0.84370  0.10030  0.90750  1.0000
  N   N29       1.0  0.50200  0.12870  0.61040  1.0000
  N   N30       1.0  0.49800  0.62870  0.88960  1.0000
  N   N31       1.0  0.49800  0.87130  0.38960  1.0000
  N   N32       1.0  0.50200  0.37130  0.11040  1.0000
  O   O1        1.0  0.62952  0.17440  0.25972  1.0000
  O   O2        1.0  0.37048  0.67440  0.24028  1.0000
  O   O3        1.0  0.37048  0.82560  0.74028  1.0000
  O   O4        1.0  0.62952  0.32560  0.75972  1.0000
  O   O5        1.0  0.90704  0.29890  0.26254  1.0000
  O   O6        1.0  0.09296  0.79890  0.23746  1.0000
  O   O7        1.0  0.09296  0.70110  0.73746  1.0000
  O   O8        1.0  0.90704  0.20110  0.76254  1.0000
  O   O9        1.0  0.48490  0.21970  0.26760  1.0000
  O   O10       1.0  0.51510  0.71970  0.23240  1.0000
  O   O11       1.0  0.51510  0.78030  0.73240  1.0000
  O   O12       1.0  0.48490  0.28030  0.76760  1.0000
  O   O13       1.0  0.98140  0.28970  0.19630  0.3410
  O   O14       1.0  0.01860  0.78970  0.30370  0.3410
  O   O15       1.0  0.01860  0.71030  0.80370  0.3410
  O   O16       1.0  0.98140  0.21030  0.69630  0.3410
  O   O17       1.0  0.03210  0.24930  0.23960  0.6590
  O   O18       1.0  0.96790  0.74930  0.26040  0.6590
  O   O19       1.0  0.96790  0.75070  0.76040  0.6590
  O   O20       1.0  0.03210  0.25070  0.73960  0.6590
  F   F1        1.0  0.97500  0.43860  0.25680  0.6590
  F   F2        1.0  0.02500  0.93860  0.24320  0.6590
  F   F3        1.0  0.02500  0.56140  0.74320  0.6590
  F   F4        1.0  0.97500  0.06140  0.75680  0.6590
  F   F5        1.0  0.07840  0.40080  0.32800  0.6590
  F   F6        1.0  0.92160  0.90080  0.17200  0.6590
  F   F7        1.0  0.92160  0.59920  0.67200  0.6590
  F   F8        1.0  0.07840  0.09920  0.82800  0.6590
  F   F9        1.0  0.13710  0.37620  0.26850  0.6590
  F   F10       1.0  0.86290  0.87620  0.23150  0.6590
  F   F11       1.0  0.86290  0.62380  0.73150  0.6590
  F   F12       1.0  0.13710  0.12380  0.76850  0.6590
  F   F13       1.0  0.54800  0.05970  0.31820  1.0000
  F   F14       1.0  0.45200  0.55970  0.18180  1.0000
  F   F15       1.0  0.45200  0.94030  0.68180  1.0000
  F   F16       1.0  0.54800  0.44030  0.81820  1.0000
  F   F17       1.0  0.38960  0.08610  0.23730  1.0000
  F   F18       1.0  0.61040  0.58610  0.26270  1.0000
  F   F19       1.0  0.61040  0.91390  0.76270  1.0000
  F   F20       1.0  0.38960  0.41390  0.73730  1.0000
  F   F21       1.0  0.51890  0.04630  0.22090  1.0000
  F   F22       1.0  0.48110  0.54630  0.27910  1.0000
  F   F23       1.0  0.48110  0.95370  0.77910  1.0000
  F   F24       1.0  0.51890  0.45370  0.72090  1.0000
  F   F25       1.0  0.10350  0.40660  0.24350  0.3410
  F   F26       1.0  0.89650  0.90660  0.25650  0.3410
  F   F27       1.0  0.89650  0.59340  0.75650  0.3410
  F   F28       1.0  0.10350  0.09340  0.74350  0.3410
  F   F29       1.0  0.13510  0.34800  0.33510  0.3410
  F   F30       1.0  0.86490  0.84800  0.16490  0.3410
  F   F31       1.0  0.86490  0.65200  0.66490  0.3410
  F   F32       1.0  0.13510  0.15200  0.83510  0.3410
  F   F33       1.0  0.02320  0.40250  0.21520  0.3410
  F   F34       1.0  0.97680  0.90250  0.28480  0.3410
  F   F35       1.0  0.97680  0.59750  0.78480  0.3410
  F   F36       1.0  0.02320  0.09750  0.71520  0.3410
