data_image0
_chemical_formula_structural       ZnH28C40N8H7C7SO3H7C7SO3
_chemical_formula_sum              "Zn1 H42 C54 N8 S2 O6"
_cell_length_a       11.7749
_cell_length_b       12.174
_cell_length_c       12.2678
_cell_angle_alpha    111.157
_cell_angle_beta     110.389
_cell_angle_gamma    93.629

_space_group_name_H-M_alt    "P 1"
_space_group_IT_number       1

loop_
  _space_group_symop_operation_xyz
  'x, y, z'

loop_
  _atom_site_type_symbol
  _atom_site_label
  _atom_site_symmetry_multiplicity
  _atom_site_fract_x
  _atom_site_fract_y
  _atom_site_fract_z
  _atom_site_occupancy
  Zn  Zn1       1.0  0.50000  0.50000  0.50000  1.0000
  H   H1        1.0  0.57300  0.24410  0.52580  1.0000
  H   H2        1.0  0.42700  0.75590  0.47420  1.0000
  H   H3        1.0  0.75050  0.23630  0.69910  1.0000
  H   H4        1.0  0.24950  0.76370  0.30090  1.0000
  H   H5        1.0  0.75070  0.57740  0.75210  1.0000
  H   H6        1.0  0.24930  0.42260  0.24790  1.0000
  H   H7        1.0  0.54320  0.77810  0.70770  1.0000
  H   H8        1.0  0.45680  0.22190  0.29230  1.0000
  H   H9        1.0  0.37840  0.48420  0.70190  1.0000
  H   H10       1.0  0.62160  0.51580  0.29810  1.0000
  H   H11       1.0  0.37170  0.65380  0.88030  1.0000
  H   H12       1.0  0.62830  0.34620  0.11970  1.0000
  H   H13       1.0  0.68440  0.79380  0.98730  1.0000
  H   H14       1.0  0.31560  0.20620  0.01270  1.0000
  H   H15       1.0  0.86540  0.88380  0.16030  1.0000
  H   H16       1.0  0.13460  0.11620  0.83970  1.0000
  H   H17       1.0  0.89430  0.08190  0.30610  1.0000
  H   H18       1.0  0.10570  0.91810  0.69390  1.0000
  H   H19       1.0  0.74240  0.18710  0.27570  1.0000
  H   H20       1.0  0.25760  0.81290  0.72430  1.0000
  H   H21       1.0  0.96180  0.36220  0.68960  1.0000
  H   H22       1.0  0.03820  0.63780  0.31040  1.0000
  H   H23       1.0  0.15130  0.33390  0.69170  1.0000
  H   H24       1.0  0.84870  0.66610  0.30830  1.0000
  H   H25       1.0  0.32360  0.39850  0.88430  1.0000
  H   H26       1.0  0.67640  0.60150  0.11570  1.0000
  H   H27       1.0  0.30550  0.48690  0.07310  1.0000
  H   H28       1.0  0.69450  0.51310  0.92690  1.0000
  C   C1        1.0  0.63150  0.31060  0.59350  1.0000
  C   C2        1.0  0.36850  0.68940  0.40650  1.0000
  C   C3        1.0  0.72930  0.30520  0.68870  1.0000
  C   C4        1.0  0.27070  0.69480  0.31130  1.0000
  C   C5        1.0  0.72810  0.49370  0.71670  1.0000
  C   C6        1.0  0.27190  0.50630  0.28330  1.0000
  C   C7        1.0  0.50170  0.72590  0.72810  1.0000
  C   C8        1.0  0.49830  0.27410  0.27190  1.0000
  C   C9        1.0  0.41090  0.56490  0.72570  1.0000
  C   C10       1.0  0.58910  0.43510  0.27430  1.0000
  C   C11       1.0  0.40680  0.65790  0.82430  1.0000
  C   C12       1.0  0.59320  0.34210  0.17570  1.0000
  C   C13       1.0  0.38660  0.94400  0.89100  1.0000
  C   C14       1.0  0.61340  0.05600  0.10900  1.0000
  C   C15       1.0  0.48380  0.88380  0.91440  1.0000
  C   C16       1.0  0.51620  0.11620  0.08560  1.0000
  C   C17       1.0  0.59600  0.93450  0.01880  1.0000
  C   C18       1.0  0.40400  0.06550  0.98120  1.0000
  C   C19       1.0  0.69470  0.87280  0.04380  1.0000
  C   C20       1.0  0.30530  0.12720  0.95620  1.0000
  C   C21       1.0  0.80240  0.92590  0.14690  1.0000
  C   C22       1.0  0.19760  0.07410  0.85310  1.0000
  C   C23       1.0  0.81980  0.04590  0.23500  1.0000
  C   C24       1.0  0.18020  0.95410  0.76500  1.0000
  C   C25       1.0  0.72910  0.10850  0.21690  1.0000
  C   C26       1.0  0.27090  0.89150  0.78310  1.0000
  C   C27       1.0  0.88240  0.51990  0.99880  1.0000
  C   C28       1.0  0.11760  0.48010  0.00120  1.0000
  C   C29       1.0  0.89830  0.46340  0.88590  1.0000
  C   C30       1.0  0.10170  0.53660  0.11410  1.0000
  C   C31       1.0  0.01220  0.44230  0.88220  1.0000
  C   C32       1.0  0.98780  0.55770  0.11780  1.0000
  C   C33       1.0  0.02940  0.38730  0.76720  1.0000
  C   C34       1.0  0.97060  0.61270  0.23280  1.0000
  C   C35       1.0  0.14230  0.37080  0.76820  1.0000
  C   C36       1.0  0.85770  0.62920  0.23180  1.0000
  C   C37       1.0  0.24630  0.40950  0.88490  1.0000
  C   C38       1.0  0.75370  0.59050  0.11510  1.0000
  C   C39       1.0  0.23570  0.46210  0.99740  1.0000
  C   C40       1.0  0.76430  0.53790  0.00260  1.0000
  N   N1        1.0  0.63090  0.42930  0.61150  1.0000
  N   N2        1.0  0.36910  0.57070  0.38850  1.0000
  N   N3        1.0  0.79140  0.42330  0.76730  1.0000
  N   N4        1.0  0.20860  0.57670  0.23270  1.0000
  N   N5        1.0  0.47040  0.60710  0.66550  1.0000
  N   N6        1.0  0.52960  0.39290  0.33450  1.0000
  N   N7        1.0  0.46480  0.76080  0.82590  1.0000
  N   N8        1.0  0.53520  0.23920  0.17410  1.0000
  H   H29       1.0  0.16650  0.79830  0.09520  1.0000
  H   H30       1.0  0.21660  0.71130  0.00180  1.0000
  H   H31       1.0  0.24710  0.85060  0.03960  1.0000
  H   H32       1.0  0.99420  0.88770  0.01140  1.0000
  H   H33       1.0  0.82570  0.88280  0.84100  1.0000
  H   H34       1.0  0.93640  0.63550  0.60300  1.0000
  H   H35       1.0  0.10510  0.64470  0.77460  1.0000
  C   C41       1.0  0.18540  0.78380  0.02180  1.0000
  C   C42       1.0  0.06990  0.77010  0.91040  1.0000
  C   C43       1.0  0.98370  0.83840  0.92890  1.0000
  C   C44       1.0  0.88200  0.83490  0.82700  1.0000
  C   C45       1.0  0.86440  0.76030  0.70500  1.0000
  C   C46       1.0  0.94850  0.68760  0.68520  1.0000
  C   C47       1.0  0.04940  0.69360  0.78810  1.0000
  S   S1        1.0  0.73284  0.75089  0.57426  1.0000
  O   O1        1.0  0.64580  0.64498  0.54690  1.0000
  O   O2        1.0  0.77060  0.73840  0.47180  1.0000
  O   O3        1.0  0.68730  0.85978  0.61730  1.0000
  H   H36       1.0  0.83350  0.20170  0.90480  1.0000
  H   H37       1.0  0.78340  0.28870  0.99820  1.0000
  H   H38       1.0  0.75290  0.14940  0.96040  1.0000
  H   H39       1.0  0.00580  0.11230  0.98860  1.0000
  H   H40       1.0  0.17430  0.11720  0.15900  1.0000
  H   H41       1.0  0.06360  0.36450  0.39700  1.0000
  H   H42       1.0  0.89490  0.35530  0.22540  1.0000
  C   C48       1.0  0.81460  0.21620  0.97820  1.0000
  C   C49       1.0  0.93010  0.22990  0.08960  1.0000
  C   C50       1.0  0.01630  0.16160  0.07110  1.0000
  C   C51       1.0  0.11800  0.16510  0.17300  1.0000
  C   C52       1.0  0.13560  0.23970  0.29500  1.0000
  C   C53       1.0  0.05150  0.31240  0.31480  1.0000
  C   C54       1.0  0.95060  0.30640  0.21190  1.0000
  S   S2        1.0  0.26716  0.24911  0.42574  1.0000
  O   O4        1.0  0.35420  0.35502  0.45310  1.0000
  O   O5        1.0  0.22940  0.26160  0.52820  1.0000
  O   O6        1.0  0.31270  0.14022  0.38270  1.0000
