data_image0
_chemical_formula_structural       Cd2H56C80N16
_chemical_formula_sum              "Cd2 H56 C80 N16"
_cell_length_a       10.6432
_cell_length_b       13.388
_cell_length_c       23.8161
_cell_angle_alpha    90
_cell_angle_beta     115.162
_cell_angle_gamma    90

_space_group_name_H-M_alt    "P 1"
_space_group_IT_number       1

loop_
  _space_group_symop_operation_xyz
  'x, y, z'

loop_
  _atom_site_type_symbol
  _atom_site_label
  _atom_site_symmetry_multiplicity
  _atom_site_fract_x
  _atom_site_fract_y
  _atom_site_fract_z
  _atom_site_occupancy
  Cd  Cd1       1.0  0.00000  0.00000  0.50000  1.0000
  Cd  Cd2       1.0  0.00000  0.50000  0.00000  1.0000
  H   H1        1.0  0.00969  0.10845  0.63038  1.0000
  H   H2        1.0  0.99031  0.60845  0.86962  1.0000
  H   H3        1.0  0.99031  0.89155  0.36962  1.0000
  H   H4        1.0  0.00969  0.39155  0.13038  1.0000
  H   H5        1.0  0.30750  0.13732  0.57666  1.0000
  H   H6        1.0  0.69250  0.63732  0.92334  1.0000
  H   H7        1.0  0.69250  0.86268  0.42334  1.0000
  H   H8        1.0  0.30750  0.36268  0.07666  1.0000
  H   H9        1.0  0.37067  0.23856  0.67004  1.0000
  H   H10       1.0  0.62933  0.73856  0.82996  1.0000
  H   H11       1.0  0.62933  0.76144  0.32996  1.0000
  H   H12       1.0  0.37067  0.26144  0.17004  1.0000
  H   H13       1.0  0.07240  0.35339  0.62486  1.0000
  H   H14       1.0  0.92760  0.85339  0.87514  1.0000
  H   H15       1.0  0.92760  0.64661  0.37514  1.0000
  H   H16       1.0  0.07240  0.14661  0.12486  1.0000
  H   H17       1.0  0.99359  0.51283  0.61957  1.0000
  H   H18       1.0  0.00641  0.01283  0.88043  1.0000
  H   H19       1.0  0.00641  0.48717  0.38043  1.0000
  H   H20       1.0  0.99359  0.98717  0.11957  1.0000
  H   H21       1.0  0.00694  0.59383  0.70858  1.0000
  H   H22       1.0  0.99306  0.09383  0.79142  1.0000
  H   H23       1.0  0.99306  0.40617  0.29142  1.0000
  H   H24       1.0  0.00694  0.90617  0.20858  1.0000
  H   H25       1.0  0.09398  0.51495  0.80147  1.0000
  H   H26       1.0  0.90602  0.01495  0.69853  1.0000
  H   H27       1.0  0.90602  0.48505  0.19853  1.0000
  H   H28       1.0  0.09398  0.98505  0.30147  1.0000
  H   H29       1.0  0.29387  0.20637  0.92600  1.0000
  H   H30       1.0  0.70613  0.70637  0.57400  1.0000
  H   H31       1.0  0.70613  0.79363  0.07400  1.0000
  H   H32       1.0  0.29387  0.29363  0.42600  1.0000
  H   H33       1.0  0.37005  0.04683  0.93063  1.0000
  H   H34       1.0  0.62995  0.54683  0.56937  1.0000
  H   H35       1.0  0.62995  0.95317  0.06937  1.0000
  H   H36       1.0  0.37005  0.45317  0.43063  1.0000
  H   H37       1.0  0.36724  0.96833  0.84230  1.0000
  H   H38       1.0  0.63276  0.46833  0.65770  1.0000
  H   H39       1.0  0.63276  0.03167  0.15770  1.0000
  H   H40       1.0  0.36724  0.53167  0.34230  1.0000
  H   H41       1.0  0.28537  0.04927  0.75014  1.0000
  H   H42       1.0  0.71463  0.54927  0.74986  1.0000
  H   H43       1.0  0.71463  0.95073  0.24986  1.0000
  H   H44       1.0  0.28537  0.45073  0.25014  1.0000
  H   H45       1.0  0.00538  0.36854  0.87892  1.0000
  H   H46       1.0  0.99462  0.86854  0.62108  1.0000
  H   H47       1.0  0.99462  0.63146  0.12108  1.0000
  H   H48       1.0  0.00538  0.13146  0.37892  1.0000
  H   H49       1.0  0.40220  0.42926  0.92555  1.0000
  H   H50       1.0  0.59780  0.92926  0.57445  1.0000
  H   H51       1.0  0.59780  0.57074  0.07445  1.0000
  H   H52       1.0  0.40220  0.07074  0.42555  1.0000
  H   H53       1.0  0.33174  0.50759  0.00075  1.0000
  H   H54       1.0  0.66826  0.00759  0.49925  1.0000
  H   H55       1.0  0.66826  0.49241  0.99925  1.0000
  H   H56       1.0  0.33174  0.99241  0.50075  1.0000
  C   C1        1.0  0.09170  0.12770  0.62840  1.0000
  C   C2        1.0  0.90830  0.62770  0.87160  1.0000
  C   C3        1.0  0.90830  0.87230  0.37160  1.0000
  C   C4        1.0  0.09170  0.37230  0.12840  1.0000
  C   C5        1.0  0.25500  0.14420  0.59920  1.0000
  C   C6        1.0  0.74500  0.64420  0.90080  1.0000
  C   C7        1.0  0.74500  0.85580  0.40080  1.0000
  C   C8        1.0  0.25500  0.35580  0.09920  1.0000
  C   C9        1.0  0.29100  0.20000  0.65090  1.0000
  C   C10       1.0  0.70900  0.70000  0.84910  1.0000
  C   C11       1.0  0.70900  0.80000  0.34910  1.0000
  C   C12       1.0  0.29100  0.30000  0.15090  1.0000
  C   C13       1.0  0.18237  0.23410  0.72337  1.0000
  C   C14       1.0  0.81763  0.73410  0.77663  1.0000
  C   C15       1.0  0.81763  0.76590  0.27663  1.0000
  C   C16       1.0  0.18237  0.26590  0.22337  1.0000
  C   C17       1.0  0.13142  0.33170  0.71752  1.0000
  C   C18       1.0  0.86858  0.83170  0.78248  1.0000
  C   C19       1.0  0.86858  0.66830  0.28248  1.0000
  C   C20       1.0  0.13142  0.16830  0.21752  1.0000
  C   C21       1.0  0.07670  0.38440  0.66060  1.0000
  C   C22       1.0  0.92330  0.88440  0.83940  1.0000
  C   C23       1.0  0.92330  0.61560  0.33940  1.0000
  C   C24       1.0  0.07670  0.11560  0.16060  1.0000
  C   C25       1.0  0.03040  0.47950  0.65740  1.0000
  C   C26       1.0  0.96960  0.97950  0.84260  1.0000
  C   C27       1.0  0.96960  0.52050  0.34260  1.0000
  C   C28       1.0  0.03040  0.02050  0.15740  1.0000
  C   C29       1.0  0.03790  0.52830  0.71130  1.0000
  C   C30       1.0  0.96210  0.02830  0.78870  1.0000
  C   C31       1.0  0.96210  0.47170  0.28870  1.0000
  C   C32       1.0  0.03790  0.97170  0.21130  1.0000
  C   C33       1.0  0.08930  0.48120  0.76650  1.0000
  C   C34       1.0  0.91070  0.98120  0.73350  1.0000
  C   C35       1.0  0.91070  0.51880  0.23350  1.0000
  C   C36       1.0  0.08930  0.01880  0.26650  1.0000
  C   C37       1.0  0.13641  0.38050  0.77211  1.0000
  C   C38       1.0  0.86359  0.88050  0.72789  1.0000
  C   C39       1.0  0.86359  0.61950  0.22789  1.0000
  C   C40       1.0  0.13641  0.11950  0.27211  1.0000
  C   C41       1.0  0.19039  0.32790  0.82789  1.0000
  C   C42       1.0  0.80961  0.82790  0.67211  1.0000
  C   C43       1.0  0.80961  0.67210  0.17211  1.0000
  C   C44       1.0  0.19039  0.17210  0.32789  1.0000
  C   C45       1.0  0.23850  0.23030  0.83350  1.0000
  C   C46       1.0  0.76150  0.73030  0.66650  1.0000
  C   C47       1.0  0.76150  0.76970  0.16650  1.0000
  C   C48       1.0  0.23850  0.26970  0.33350  1.0000
  C   C49       1.0  0.29100  0.17610  0.89030  1.0000
  C   C50       1.0  0.70900  0.67610  0.60970  1.0000
  C   C51       1.0  0.70900  0.82390  0.10970  1.0000
  C   C52       1.0  0.29100  0.32390  0.39030  1.0000
  C   C53       1.0  0.33690  0.08120  0.89320  1.0000
  C   C54       1.0  0.66310  0.58120  0.60680  1.0000
  C   C55       1.0  0.66310  0.91880  0.10680  1.0000
  C   C56       1.0  0.33690  0.41880  0.39320  1.0000
  C   C57       1.0  0.33470  0.03340  0.83960  1.0000
  C   C58       1.0  0.66530  0.53340  0.66040  1.0000
  C   C59       1.0  0.66530  0.96660  0.16040  1.0000
  C   C60       1.0  0.33470  0.46660  0.33960  1.0000
  C   C61       1.0  0.28590  0.08160  0.78480  1.0000
  C   C62       1.0  0.71410  0.58160  0.71520  1.0000
  C   C63       1.0  0.71410  0.91840  0.21520  1.0000
  C   C64       1.0  0.28590  0.41840  0.28480  1.0000
  C   C65       1.0  0.23480  0.18170  0.77900  1.0000
  C   C66       1.0  0.76520  0.68170  0.72100  1.0000
  C   C67       1.0  0.76520  0.81830  0.22100  1.0000
  C   C68       1.0  0.23480  0.31830  0.27900  1.0000
  C   C69       1.0  0.09484  0.39350  0.90004  1.0000
  C   C70       1.0  0.90516  0.89350  0.59996  1.0000
  C   C71       1.0  0.90516  0.60650  0.09996  1.0000
  C   C72       1.0  0.09484  0.10650  0.40004  1.0000
  C   C73       1.0  0.31466  0.42670  0.92536  1.0000
  C   C74       1.0  0.68534  0.92670  0.57464  1.0000
  C   C75       1.0  0.68534  0.57330  0.07464  1.0000
  C   C76       1.0  0.31466  0.07330  0.42536  1.0000
  C   C77       1.0  0.27490  0.46960  0.96670  1.0000
  C   C78       1.0  0.72510  0.96960  0.53330  1.0000
  C   C79       1.0  0.72510  0.53040  0.03330  1.0000
  C   C80       1.0  0.27490  0.03040  0.46670  1.0000
  N   N1        1.0  0.12876  0.09910  0.58496  1.0000
  N   N2        1.0  0.87124  0.59910  0.91504  1.0000
  N   N3        1.0  0.87124  0.90090  0.41504  1.0000
  N   N4        1.0  0.12876  0.40090  0.08496  1.0000
  N   N5        1.0  0.13704  0.44840  0.95054  1.0000
  N   N6        1.0  0.86296  0.94840  0.54946  1.0000
  N   N7        1.0  0.86296  0.55160  0.04946  1.0000
  N   N8        1.0  0.13704  0.05160  0.45054  1.0000
  N   N9        1.0  0.18699  0.18840  0.66969  1.0000
  N   N10       1.0  0.81301  0.68840  0.83031  1.0000
  N   N11       1.0  0.81301  0.81160  0.33031  1.0000
  N   N12       1.0  0.18699  0.31160  0.16969  1.0000
  N   N13       1.0  0.19916  0.37840  0.88306  1.0000
  N   N14       1.0  0.80084  0.87840  0.61694  1.0000
  N   N15       1.0  0.80084  0.62160  0.11694  1.0000
  N   N16       1.0  0.19916  0.12160  0.38306  1.0000
